
OS:Version,
  {c885244c-26c2-4ef6-b462-8ee16bf256f2}, !- Handle
  3.2.0;                                  !- Version Identifier

OS:Facility,
  {4de15254-531a-4605-9295-8fd385ba951c}; !- Handle

OS:Site,
  {24ed0392-0ecd-4bdc-ac40-79b502640109}, !- Handle
  Denver Intl Ap_CO_USA,                  !- Name
  39.8056537672223,                       !- Latitude {deg}
  -104.781262278557,                      !- Longitude {deg}
  -7,                                     !- Time Zone {hr}
  497.7384,                               !- Elevation {m}
  City;                                   !- Terrain

OS:SimulationControl,
  {7854a146-8668-4ff1-a5a6-413bd1ee1166}, !- Handle
  ,                                       !- Do Zone Sizing Calculation
  ,                                       !- Do System Sizing Calculation
  ,                                       !- Do Plant Sizing Calculation
  No,                                     !- Run Simulation for Sizing Periods
  Yes,                                    !- Run Simulation for Weather File Run Periods
  ,                                       !- Loads Convergence Tolerance Value {W}
  ,                                       !- Temperature Convergence Tolerance Value {deltaC}
  ,                                       !- Solar Distribution
  ,                                       !- Maximum Number of Warmup Days
  ,                                       !- Minimum Number of Warmup Days
  Yes,                                    !- Do HVAC Sizing Simulation for Sizing Periods
  1;                                      !- Maximum Number of HVAC Sizing Simulation Passes

OS:Sizing:Parameters,
  {8853843c-35d9-4bf3-9f56-351c460dbc34}, !- Handle
  1.25,                                   !- Heating Sizing Factor
  1.15;                                   !- Cooling Sizing Factor

OS:Timestep,
  {abfe115a-a790-419f-b34f-899e355295ad}, !- Handle
  1;                                      !- Number of Timesteps per Hour

OS:ShadowCalculation,
  {7b884cb4-aa8c-4817-9f97-09d03abe2bac}, !- Handle
  PolygonClipping,                        !- Shading Calculation Method
  ,                                       !- Shading Calculation Update Frequency Method
  20,                                     !- Shading Calculation Update Frequency
  15000,                                  !- Maximum Figures in Shadow Overlap Calculations
  ,                                       !- Polygon Clipping Algorithm
  512,                                    !- Pixel Counting Resolution
  ,                                       !- Sky Diffuse Modeling Algorithm
  No,                                     !- Output External Shading Calculation Results
  No,                                     !- Disable Self-Shading Within Shading Zone Groups
  No;                                     !- Disable Self-Shading From Shading Zone Groups to Other Zones

OS:HeatBalanceAlgorithm,
  {797381d9-72f3-4e28-bb78-730414f3229d}, !- Handle
  ConductionTransferFunction,             !- Algorithm
  200;                                    !- Surface Temperature Upper Limit {C}

OS:RunPeriod,
  {61e43aea-20f8-4aaf-bd69-a0b319a86716}, !- Handle
  Run Period 1,                           !- Name
  1,                                      !- Begin Month
  1,                                      !- Begin Day of Month
  12,                                     !- End Month
  31,                                     !- End Day of Month
  ,                                       !- Use Weather File Holidays and Special Days
  ,                                       !- Use Weather File Daylight Saving Period
  ,                                       !- Apply Weekend Holiday Rule
  ,                                       !- Use Weather File Rain Indicators
  ,                                       !- Use Weather File Snow Indicators
  ;                                       !- Number of Times Runperiod to be Repeated

OS:LifeCycleCost:Parameters,
  {0260d87e-3438-4122-b10b-98796a421ecd}, !- Handle
  ,                                       !- Analysis Type
  ,                                       !- Discounting Convention
  ,                                       !- Inflation Approach
  ,                                       !- Real Discount Rate
  ,                                       !- Nominal Discount Rate
  ,                                       !- Inflation
  ,                                       !- Base Date Month
  ,                                       !- Base Date Year
  ,                                       !- Service Date Month
  ,                                       !- Service Date Year
  ;                                       !- Length of Study Period in Years

OS:YearDescription,
  {75662e77-969a-4243-a750-d2ce4067c51f}, !- Handle
  2019,                                   !- Calendar Year
  ,                                       !- Day of Week for Start Day
  ;                                       !- Is Leap Year

OS:WeatherFile,
  {b490a5e5-f956-407a-b771-cf4d5fb9f60a}, !- Handle
  Denver Intl Ap,                         !- City
  CO,                                     !- State Province Region
  USA,                                    !- Country
  TMY3,                                   !- Data Source
  725650,                                 !- WMO Number
  39.83,                                  !- Latitude {deg}
  -104.65,                                !- Longitude {deg}
  -7,                                     !- Time Zone {hr}
  1650,                                   !- Elevation {m}
  C:/AUMC/ev/weather/USA_CO_Denver.Intl.AP.725650_TMY3.epw, !- Url
  ;                                       !- Checksum

OS:Site:WaterMainsTemperature,
  {d3bceec9-3ed7-415f-baa3-1a4f85ba2435}, !- Handle
  Correlation,                            !- Calculation Method
  ,                                       !- Temperature Schedule Name
  10.8,                                   !- Annual Average Outdoor Air Temperature {C}
  23.2;                                   !- Maximum Difference In Monthly Average Outdoor Air Temperatures {deltaC}

OS:SizingPeriod:DesignDay,
  {19f442e2-d069-4471-b3b4-d56c6812ceab}, !- Handle
  Denver Intl Ap Ann Clg .4% Condns DB=>MWB 1, !- Name
  34.6,                                   !- Maximum Dry-Bulb Temperature {C}
  15.2,                                   !- Daily Dry-Bulb Temperature Range {deltaC}
  15.7,                                   !- Humidity Indicating Conditions at Maximum Dry-Bulb
  83011,                                  !- Barometric Pressure {Pa}
  4.2,                                    !- Wind Speed {m/s}
  80,                                     !- Wind Direction {deg}
  0,                                      !- Sky Clearness
  0,                                      !- Rain Indicator
  0,                                      !- Snow Indicator
  21,                                     !- Day of Month
  7,                                      !- Month
  SummerDesignDay,                        !- Day Type
  0,                                      !- Daylight Saving Time Indicator
  Wetbulb,                                !- Humidity Indicating Type
  ,                                       !- Humidity Indicating Day Schedule Name
  DefaultMultipliers,                     !- Dry-Bulb Temperature Range Modifier Type
  ,                                       !- Dry-Bulb Temperature Range Modifier Schedule Name
  ASHRAETau,                              !- Solar Model Indicator
  ,                                       !- Beam Solar Day Schedule Name
  ,                                       !- Diffuse Solar Day Schedule Name
  0.424,                                  !- ASHRAE Taub {dimensionless}
  2.012;                                  !- ASHRAE Taud {dimensionless}

OS:SizingPeriod:DesignDay,
  {d6a0f069-f513-4796-9fa5-b91a760bbe41}, !- Handle
  Denver Intl Ap Ann Clg .4% Condns WB=>MDB 1, !- Name
  27.3,                                   !- Maximum Dry-Bulb Temperature {C}
  15.2,                                   !- Daily Dry-Bulb Temperature Range {deltaC}
  18.3,                                   !- Humidity Indicating Conditions at Maximum Dry-Bulb
  83011,                                  !- Barometric Pressure {Pa}
  4.2,                                    !- Wind Speed {m/s}
  80,                                     !- Wind Direction {deg}
  0,                                      !- Sky Clearness
  0,                                      !- Rain Indicator
  0,                                      !- Snow Indicator
  21,                                     !- Day of Month
  7,                                      !- Month
  SummerDesignDay,                        !- Day Type
  0,                                      !- Daylight Saving Time Indicator
  Wetbulb,                                !- Humidity Indicating Type
  ,                                       !- Humidity Indicating Day Schedule Name
  DefaultMultipliers,                     !- Dry-Bulb Temperature Range Modifier Type
  ,                                       !- Dry-Bulb Temperature Range Modifier Schedule Name
  ASHRAETau,                              !- Solar Model Indicator
  ,                                       !- Beam Solar Day Schedule Name
  ,                                       !- Diffuse Solar Day Schedule Name
  0.424,                                  !- ASHRAE Taub {dimensionless}
  2.012;                                  !- ASHRAE Taud {dimensionless}

OS:SizingPeriod:DesignDay,
  {de52983c-a56a-4375-a0af-43929e8173f7}, !- Handle
  Denver Intl Ap Ann Htg 99.6% Condns DB 1, !- Name
  -17.4,                                  !- Maximum Dry-Bulb Temperature {C}
  0,                                      !- Daily Dry-Bulb Temperature Range {deltaC}
  -17.4,                                  !- Humidity Indicating Conditions at Maximum Dry-Bulb
  83011,                                  !- Barometric Pressure {Pa}
  3.3,                                    !- Wind Speed {m/s}
  160,                                    !- Wind Direction {deg}
  0,                                      !- Sky Clearness
  0,                                      !- Rain Indicator
  0,                                      !- Snow Indicator
  21,                                     !- Day of Month
  12,                                     !- Month
  WinterDesignDay,                        !- Day Type
  0,                                      !- Daylight Saving Time Indicator
  Wetbulb,                                !- Humidity Indicating Type
  ,                                       !- Humidity Indicating Day Schedule Name
  DefaultMultipliers,                     !- Dry-Bulb Temperature Range Modifier Type
  ,                                       !- Dry-Bulb Temperature Range Modifier Schedule Name
  ASHRAEClearSky;                         !- Solar Model Indicator

OS:ClimateZones,
  {ecf16e7e-04d6-43b2-b001-44dda0a5a97e}, !- Handle
  ASHRAE,                                 !- Climate Zone Institution Name 1
  ANSI/ASHRAE Standard 169,               !- Climate Zone Document Name 1
  2006,                                   !- Climate Zone Document Year 1
  5B;                                     !- Climate Zone Value 1

OS:Rendering:Color,
  {88eb591f-af89-4379-bf3e-99be279da8bf}, !- Handle
  Office WholeBuilding - Md Office,       !- Name
  120,                                    !- Rendering Red Value
  230,                                    !- Rendering Green Value
  199;                                    !- Rendering Blue Value

OS:RunPeriodControl:DaylightSavingTime,
  {891ec08c-c7a4-4b6b-88ce-f517b963083e}, !- Handle
  2nd Sunday in March,                    !- Start Date
  1st Sunday in November;                 !- End Date

OS:People:Definition,
  {b8c4562a-d68f-4508-9feb-ec7d39c93f08}, !- Handle
  Office WholeBuilding - Md Office People Definition, !- Name
  People/Area,                            !- Number of People Calculation Method
  ,                                       !- Number of People {people}
  0.0538195520835486,                     !- People per Space Floor Area {person/m2}
  ,                                       !- Space Floor Area per Person {m2/person}
  0.3,                                    !- Fraction Radiant
  ,                                       !- Sensible Heat Fraction
  ,                                       !- Carbon Dioxide Generation Rate {m3/s-W}
  Yes,                                    !- Enable ASHRAE 55 Comfort Warnings
  ZoneAveraged,                           !- Mean Radiant Temperature Calculation Type
  Fanger;                                 !- Thermal Comfort Model Type 1

OS:Schedule:Ruleset,
  {8d746b15-52f0-4c2a-a5fa-86ea346b40dc}, !- Handle
  Clothing Schedule,                      !- Name
  {72dca6be-86e4-47cd-9e95-df23a0f17497}, !- Schedule Type Limits Name
  {02ed0e3b-155a-4d65-a51b-46df75b2b6cd}; !- Default Day Schedule Name

OS:Schedule:Day,
  {02ed0e3b-155a-4d65-a51b-46df75b2b6cd}, !- Handle
  Clothing Schedule Default Winter Clothes, !- Name
  {72dca6be-86e4-47cd-9e95-df23a0f17497}, !- Schedule Type Limits Name
  ,                                       !- Interpolate to Timestep
  24,                                     !- Hour 1
  0,                                      !- Minute 1
  1;                                      !- Value Until Time 1

OS:Schedule:Rule,
  {faecbaa3-23ee-4783-94c4-7f48358d092d}, !- Handle
  Schedule Rule 1,                        !- Name
  {8d746b15-52f0-4c2a-a5fa-86ea346b40dc}, !- Schedule Ruleset Name
  0,                                      !- Rule Order
  {2ebc11fe-758d-4471-a24a-d9d0b9392d6a}, !- Day Schedule Name
  ,                                       !- Apply Sunday
  ,                                       !- Apply Monday
  ,                                       !- Apply Tuesday
  ,                                       !- Apply Wednesday
  ,                                       !- Apply Thursday
  ,                                       !- Apply Friday
  ,                                       !- Apply Saturday
  DateRange,                              !- Date Specification Type
  5,                                      !- Start Month
  1,                                      !- Start Day
  9,                                      !- End Month
  30;                                     !- End Day

OS:Schedule:Day,
  {2ebc11fe-758d-4471-a24a-d9d0b9392d6a}, !- Handle
  Clothing Schedule Summer Clothes,       !- Name
  {72dca6be-86e4-47cd-9e95-df23a0f17497}, !- Schedule Type Limits Name
  ,                                       !- Interpolate to Timestep
  24,                                     !- Hour 1
  0,                                      !- Minute 1
  0.5;                                    !- Value Until Time 1

OS:ScheduleTypeLimits,
  {72dca6be-86e4-47cd-9e95-df23a0f17497}, !- Handle
  ClothingInsulation,                     !- Name
  0,                                      !- Lower Limit Value
  ,                                       !- Upper Limit Value
  Continuous,                             !- Numeric Type
  ClothingInsulation;                     !- Unit Type

OS:Schedule:Ruleset,
  {9c0bf406-fa74-4d54-81d0-12cfed40d2d0}, !- Handle
  Air Velocity Schedule,                  !- Name
  {0c8c1d33-87c7-471f-91ce-4df39b92d8b8}, !- Schedule Type Limits Name
  {f1db62ba-6c1a-4d8a-964c-9afa6c4e490d}; !- Default Day Schedule Name

OS:Schedule:Day,
  {f1db62ba-6c1a-4d8a-964c-9afa6c4e490d}, !- Handle
  Air Velocity Schedule Default,          !- Name
  {0c8c1d33-87c7-471f-91ce-4df39b92d8b8}, !- Schedule Type Limits Name
  ,                                       !- Interpolate to Timestep
  24,                                     !- Hour 1
  0,                                      !- Minute 1
  0.2;                                    !- Value Until Time 1

OS:ScheduleTypeLimits,
  {0c8c1d33-87c7-471f-91ce-4df39b92d8b8}, !- Handle
  Velocity,                               !- Name
  0,                                      !- Lower Limit Value
  ,                                       !- Upper Limit Value
  Continuous,                             !- Numeric Type
  Velocity;                               !- Unit Type

OS:Schedule:Ruleset,
  {7d178c4d-53b8-4a06-acda-d899544ccc45}, !- Handle
  Work Efficiency Schedule,               !- Name
  {54de25f8-f82b-4b43-aed7-88bd3e55ee59}, !- Schedule Type Limits Name
  {5d443d9e-0c8c-4f11-858b-58d2f9635608}; !- Default Day Schedule Name

OS:Schedule:Day,
  {5d443d9e-0c8c-4f11-858b-58d2f9635608}, !- Handle
  Work Efficiency Schedule Default,       !- Name
  {54de25f8-f82b-4b43-aed7-88bd3e55ee59}, !- Schedule Type Limits Name
  ,                                       !- Interpolate to Timestep
  24,                                     !- Hour 1
  0,                                      !- Minute 1
  0;                                      !- Value Until Time 1

OS:ScheduleTypeLimits,
  {54de25f8-f82b-4b43-aed7-88bd3e55ee59}, !- Handle
  Fractional,                             !- Name
  0,                                      !- Lower Limit Value
  1,                                      !- Upper Limit Value
  Continuous;                             !- Numeric Type

OS:Lights:Definition,
  {fbbb1272-633c-4c4f-943e-c818e2602923}, !- Handle
  Office WholeBuilding - Md Office Lights Definition, !- Name
  Watts/Area,                             !- Design Level Calculation Method
  ,                                       !- Lighting Level {W}
  6.88890266669422,                       !- Watts per Space Floor Area {W/m2}
  ,                                       !- Watts per Person {W/person}
  0.7,                                    !- Fraction Radiant
  0.2,                                    !- Fraction Visible
  0;                                      !- Return Air Fraction

OS:AdditionalProperties,
  {2c5371a8-6d5d-4c7c-a49d-0d5c0657a77c}, !- Handle
  {fbbb1272-633c-4c4f-943e-c818e2602923}, !- Object Name
  lpd_fraction_linear_fluorescent,        !- Feature Name 1
  Double,                                 !- Feature Data Type 1
  1;                                      !- Feature Value 1

OS:ElectricEquipment:Definition,
  {967dd7c7-619f-49e3-89af-cd4a44f31e00}, !- Handle
  Office WholeBuilding - Md Office Elec Equip Definition, !- Name
  Watts/Area,                             !- Design Level Calculation Method
  ,                                       !- Design Level {W}
  8.07293281253229,                       !- Watts per Space Floor Area {W/m2}
  ,                                       !- Watts per Person {W/person}
  0,                                      !- Fraction Latent
  0.5,                                    !- Fraction Radiant
  0;                                      !- Fraction Lost

OS:DesignSpecification:OutdoorAir,
  {4175e8d8-523f-45bf-a2ea-d542f00a7616}, !- Handle
  Office WholeBuilding - Md Office Ventilation, !- Name
  Sum,                                    !- Outdoor Air Method
  ,                                       !- Outdoor Air Flow per Person {m3/s-person}
  0.0004318,                              !- Outdoor Air Flow per Floor Area {m3/s-m2}
  ,                                       !- Outdoor Air Flow Rate {m3/s}
  ,                                       !- Outdoor Air Flow Air Changes per Hour {1/hr}
  ;                                       !- Outdoor Air Flow Rate Fraction Schedule Name

OS:DefaultScheduleSet,
  {d2268ac3-8760-4f6b-a894-f4cd106e909c}, !- Handle
  Office WholeBuilding - Md Office Schedule Set, !- Name
  ,                                       !- Hours of Operation Schedule Name
  {359c9136-4fa7-434a-badb-57c1ccda6bb7}, !- Number of People Schedule Name
  {20c56956-f2ff-45a4-a0a2-16514134a52b}, !- People Activity Level Schedule Name
  {c54b38c3-961f-49d8-9945-957cac42a798}, !- Lighting Schedule Name
  {75d289a5-32ca-457e-95d0-ca66b5804ce0}, !- Electric Equipment Schedule Name
  ,                                       !- Gas Equipment Schedule Name
  ,                                       !- Hot Water Equipment Schedule Name
  {aa2adff5-e0e8-491b-92e1-e347d5e67b8a}, !- Infiltration Schedule Name
  ,                                       !- Steam Equipment Schedule Name
  ;                                       !- Other Equipment Schedule Name

OS:Schedule:Ruleset,
  {359c9136-4fa7-434a-badb-57c1ccda6bb7}, !- Handle
  OfficeMedium BLDG_OCC_SCH,              !- Name
  {54de25f8-f82b-4b43-aed7-88bd3e55ee59}, !- Schedule Type Limits Name
  {68d87f5d-d0bd-402a-979c-a733badb30ba}, !- Default Day Schedule Name
  {7eab64c3-94a2-4ea1-b75d-ef67077ef9b2}, !- Summer Design Day Schedule Name
  {e225f658-6c49-49ea-a4e7-31faba7f47b6}; !- Winter Design Day Schedule Name

OS:Schedule:Day,
  {68d87f5d-d0bd-402a-979c-a733badb30ba}, !- Handle
  OfficeMedium BLDG_OCC_SCH Default,      !- Name
  {54de25f8-f82b-4b43-aed7-88bd3e55ee59}, !- Schedule Type Limits Name
  Yes,                                    !- Interpolate to Timestep
  8,                                      !- Hour 1
  0,                                      !- Minute 1
  0,                                      !- Value Until Time 1
  16,                                     !- Hour 2
  0,                                      !- Minute 2
  0.05,                                   !- Value Until Time 2
  24,                                     !- Hour 3
  0,                                      !- Minute 3
  0;                                      !- Value Until Time 3

OS:Schedule:Rule,
  {7178861f-eaff-417e-8295-6c65e0ce341b}, !- Handle
  Schedule Rule 2,                        !- Name
  {359c9136-4fa7-434a-badb-57c1ccda6bb7}, !- Schedule Ruleset Name
  1,                                      !- Rule Order
  {f636a150-167a-4ba9-bcb6-f16fdfe60609}, !- Day Schedule Name
  ,                                       !- Apply Sunday
  ,                                       !- Apply Monday
  ,                                       !- Apply Tuesday
  ,                                       !- Apply Wednesday
  ,                                       !- Apply Thursday
  ,                                       !- Apply Friday
  Yes,                                    !- Apply Saturday
  DateRange,                              !- Date Specification Type
  1,                                      !- Start Month
  1,                                      !- Start Day
  12,                                     !- End Month
  31;                                     !- End Day

OS:Schedule:Day,
  {f636a150-167a-4ba9-bcb6-f16fdfe60609}, !- Handle
  OfficeMedium BLDG_OCC_SCH Sat Day,      !- Name
  {54de25f8-f82b-4b43-aed7-88bd3e55ee59}, !- Schedule Type Limits Name
  Yes,                                    !- Interpolate to Timestep
  6,                                      !- Hour 1
  30,                                     !- Minute 1
  0,                                      !- Value Until Time 1
  7,                                      !- Hour 2
  30,                                     !- Minute 2
  0.05,                                   !- Value Until Time 2
  8,                                      !- Hour 3
  30,                                     !- Minute 3
  0.1,                                    !- Value Until Time 3
  9,                                      !- Hour 4
  30,                                     !- Minute 4
  0.2,                                    !- Value Until Time 4
  10,                                     !- Hour 5
  30,                                     !- Minute 5
  0.3,                                    !- Value Until Time 5
  11,                                     !- Hour 6
  30,                                     !- Minute 6
  0.25,                                   !- Value Until Time 6
  12,                                     !- Hour 7
  30,                                     !- Minute 7
  0.2,                                    !- Value Until Time 7
  13,                                     !- Hour 8
  30,                                     !- Minute 8
  0.15,                                   !- Value Until Time 8
  14,                                     !- Hour 9
  30,                                     !- Minute 9
  0.1,                                    !- Value Until Time 9
  15,                                     !- Hour 10
  30,                                     !- Minute 10
  0.1,                                    !- Value Until Time 10
  16,                                     !- Hour 11
  30,                                     !- Minute 11
  0.075,                                  !- Value Until Time 11
  17,                                     !- Hour 12
  30,                                     !- Minute 12
  0.05,                                   !- Value Until Time 12
  18,                                     !- Hour 13
  30,                                     !- Minute 13
  0.025,                                  !- Value Until Time 13
  19,                                     !- Hour 14
  30,                                     !- Minute 14
  0,                                      !- Value Until Time 14
  20,                                     !- Hour 15
  30,                                     !- Minute 15
  0,                                      !- Value Until Time 15
  24,                                     !- Hour 16
  0,                                      !- Minute 16
  0;                                      !- Value Until Time 16

OS:Schedule:Day,
  {7eab64c3-94a2-4ea1-b75d-ef67077ef9b2}, !- Handle
  OfficeMedium BLDG_OCC_SCH Summer Design Day, !- Name
  {54de25f8-f82b-4b43-aed7-88bd3e55ee59}, !- Schedule Type Limits Name
  ,                                       !- Interpolate to Timestep
  6,                                      !- Hour 1
  0,                                      !- Minute 1
  0,                                      !- Value Until Time 1
  22,                                     !- Hour 2
  0,                                      !- Minute 2
  1,                                      !- Value Until Time 2
  24,                                     !- Hour 3
  0,                                      !- Minute 3
  0.05;                                   !- Value Until Time 3

OS:Schedule:Rule,
  {8ad1d95a-00b8-47bf-8822-a76fb59f40a5}, !- Handle
  Schedule Rule 3,                        !- Name
  {359c9136-4fa7-434a-badb-57c1ccda6bb7}, !- Schedule Ruleset Name
  0,                                      !- Rule Order
  {78a91ffa-c266-4655-8640-7241a447035f}, !- Day Schedule Name
  ,                                       !- Apply Sunday
  Yes,                                    !- Apply Monday
  Yes,                                    !- Apply Tuesday
  Yes,                                    !- Apply Wednesday
  Yes,                                    !- Apply Thursday
  Yes,                                    !- Apply Friday
  ,                                       !- Apply Saturday
  DateRange,                              !- Date Specification Type
  1,                                      !- Start Month
  1,                                      !- Start Day
  12,                                     !- End Month
  31;                                     !- End Day

OS:Schedule:Day,
  {78a91ffa-c266-4655-8640-7241a447035f}, !- Handle
  OfficeMedium BLDG_OCC_SCH Wkdy Day,     !- Name
  {54de25f8-f82b-4b43-aed7-88bd3e55ee59}, !- Schedule Type Limits Name
  Yes,                                    !- Interpolate to Timestep
  2,                                      !- Hour 1
  0,                                      !- Minute 1
  0,                                      !- Value Until Time 1
  5,                                      !- Hour 2
  30,                                     !- Minute 2
  0,                                      !- Value Until Time 2
  6,                                      !- Hour 3
  30,                                     !- Minute 3
  0.1,                                    !- Value Until Time 3
  7,                                      !- Hour 4
  30,                                     !- Minute 4
  0.2,                                    !- Value Until Time 4
  8,                                      !- Hour 5
  30,                                     !- Minute 5
  0.95,                                   !- Value Until Time 5
  9,                                      !- Hour 6
  30,                                     !- Minute 6
  0.95,                                   !- Value Until Time 6
  10,                                     !- Hour 7
  30,                                     !- Minute 7
  0.95,                                   !- Value Until Time 7
  11,                                     !- Hour 8
  30,                                     !- Minute 8
  0.5,                                    !- Value Until Time 8
  12,                                     !- Hour 9
  30,                                     !- Minute 9
  0.95,                                   !- Value Until Time 9
  13,                                     !- Hour 10
  30,                                     !- Minute 10
  0.95,                                   !- Value Until Time 10
  14,                                     !- Hour 11
  30,                                     !- Minute 11
  0.95,                                   !- Value Until Time 11
  15,                                     !- Hour 12
  30,                                     !- Minute 12
  0.3,                                    !- Value Until Time 12
  16,                                     !- Hour 13
  30,                                     !- Minute 13
  0.1,                                    !- Value Until Time 13
  17,                                     !- Hour 14