
OS:Version,
  {60020dd6-30fe-4216-8f7f-229a0d3547a3}, !- Handle
  3.5.1;                                  !- Version Identifier

OS:Facility,
  {80396fe3-4d77-433b-9425-bb9d37053bf0}; !- Handle

OS:Site,
  {9c7a7581-5f9d-4b92-8a15-cf6c2d9959f0}, !- Handle
  Buffalo Niagara Intl Ap_NY_USA,         !- Name
  42.813153418927,                        !- Latitude {deg}
  -78.8478679776468,                      !- Longitude {deg}
  -5,                                     !- Time Zone {hr}
  215,                                    !- Elevation {m}
  City;                                   !- Terrain

OS:SimulationControl,
  {a2cd3a8b-662b-45fb-9151-670b2b715a12}, !- Handle
  ,                                       !- Do Zone Sizing Calculation
  ,                                       !- Do System Sizing Calculation
  ,                                       !- Do Plant Sizing Calculation
  No,                                     !- Run Simulation for Sizing Periods
  Yes,                                    !- Run Simulation for Weather File Run Periods
  ,                                       !- Loads Convergence Tolerance Value {W}
  ,                                       !- Temperature Convergence Tolerance Value {deltaC}
  ,                                       !- Solar Distribution
  ,                                       !- Maximum Number of Warmup Days
  ,                                       !- Minimum Number of Warmup Days
  No,                                     !- Do HVAC Sizing Simulation for Sizing Periods
  1;                                      !- Maximum Number of HVAC Sizing Simulation Passes

OS:Sizing:Parameters,
  {f08ec422-5fd1-4abd-a86f-cabd2c4bd93b}, !- Handle
  1.25,                                   !- Heating Sizing Factor
  1.15;                                   !- Cooling Sizing Factor

OS:Timestep,
  {8fa5f58e-cf5b-4c1f-baa4-bd176e76b429}, !- Handle
  1;                                      !- Number of Timesteps per Hour

OS:ShadowCalculation,
  {cbd3a0f5-f04d-4fe4-acc4-9e19ac548f85}, !- Handle
  PolygonClipping,                        !- Shading Calculation Method
  ,                                       !- Shading Calculation Update Frequency Method
  20,                                     !- Shading Calculation Update Frequency
  15000,                                  !- Maximum Figures in Shadow Overlap Calculations
  ,                                       !- Polygon Clipping Algorithm
  512,                                    !- Pixel Counting Resolution
  ,                                       !- Sky Diffuse Modeling Algorithm
  No,                                     !- Output External Shading Calculation Results
  No,                                     !- Disable Self-Shading Within Shading Zone Groups
  No;                                     !- Disable Self-Shading From Shading Zone Groups to Other Zones

OS:HeatBalanceAlgorithm,
  {a976252d-9871-445c-ad6b-0a80027398a3}, !- Handle
  ConductionTransferFunction,             !- Algorithm
  200;                                    !- Surface Temperature Upper Limit {C}

OS:RunPeriod,
  {f28037b2-2131-464c-9a2b-c641d6856bc6}, !- Handle
  Run Period 1,                           !- Name
  1,                                      !- Begin Month
  1,                                      !- Begin Day of Month
  12,                                     !- End Month
  31,                                     !- End Day of Month
  ,                                       !- Use Weather File Holidays and Special Days
  ,                                       !- Use Weather File Daylight Saving Period
  ,                                       !- Apply Weekend Holiday Rule
  ,                                       !- Use Weather File Rain Indicators
  ,                                       !- Use Weather File Snow Indicators
  ;                                       !- Number of Times Runperiod to be Repeated

OS:LifeCycleCost:Parameters,
  {4228fde9-adad-49f6-b208-95dd30688f51}, !- Handle
  ,                                       !- Analysis Type
  ,                                       !- Discounting Convention
  ,                                       !- Inflation Approach
  ,                                       !- Real Discount Rate
  ,                                       !- Nominal Discount Rate
  ,                                       !- Inflation
  ,                                       !- Base Date Month
  ,                                       !- Base Date Year
  ,                                       !- Service Date Month
  ,                                       !- Service Date Year
  ;                                       !- Length of Study Period in Years

OS:YearDescription,
  {d36b945d-28ba-4191-b812-dc28bd86a25c}, !- Handle
  2017,                                   !- Calendar Year
  ,                                       !- Day of Week for Start Day
  ;                                       !- Is Leap Year

OS:WeatherFile,
  {ada1f3d1-41dc-4a60-b22c-1c07a779358a}, !- Handle
  Buffalo Niagara Intl Ap,                !- City
  NY,                                     !- State Province Region
  USA,                                    !- Country
  TMY3,                                   !- Data Source
  725280,                                 !- WMO Number
  42.93,                                  !- Latitude {deg}
  -78.73,                                 !- Longitude {deg}
  -5,                                     !- Time Zone {hr}
  215,                                    !- Elevation {m}
  C:/Users/tanus/urbanopt-des/weather/USA_NY_Buffalo-Greater.Buffalo.Intl.AP.725280_TMY3.epw, !- Url
  ;                                       !- Checksum

OS:Site:WaterMainsTemperature,
  {3cc665fd-24c8-48f4-8030-a8131caa2f6c}, !- Handle
  Correlation,                            !- Calculation Method
  ,                                       !- Temperature Schedule Name
  8.96666666666667,                       !- Annual Average Outdoor Air Temperature {C}
  26.2;                                   !- Maximum Difference In Monthly Average Outdoor Air Temperatures {deltaC}

OS:SizingPeriod:DesignDay,
  {dc50f198-13c2-4303-a148-8dfa1e5e00df}, !- Handle
  Buffalo Niagara Intl Ap Ann Clg .4% Condns DB=>MWB 1, !- Name
  30.3,                                   !- Maximum Dry-Bulb Temperature {C}
  9.3,                                    !- Daily Dry-Bulb Temperature Range {deltaC}
  98769,                                  !- Barometric Pressure {Pa}
  5.7,                                    !- Wind Speed {m/s}
  240,                                    !- Wind Direction {deg}
  ,                                       !- Sky Clearness
  No,                                     !- Rain Indicator
  No,                                     !- Snow Indicator
  21,                                     !- Day of Month
  7,                                      !- Month
  SummerDesignDay,                        !- Day Type
  No,                                     !- Daylight Saving Time Indicator
  Wetbulb,                                !- Humidity Condition Type
  ,                                       !- Humidity Condition Day Schedule Name
  21.8,                                   !- Wetbulb or DewPoint at Maximum Dry-Bulb {C}
  ,                                       !- Humidity Ratio at Maximum Dry-Bulb {kgWater/kgDryAir}
  ,                                       !- Enthalpy at Maximum Dry-Bulb {J/kg}
  DefaultMultipliers,                     !- Dry-Bulb Temperature Range Modifier Type
  ,                                       !- Dry-Bulb Temperature Range Modifier Day Schedule Name
  ASHRAETau,                              !- Solar Model Indicator
  ,                                       !- Beam Solar Day Schedule Name
  ,                                       !- Diffuse Solar Day Schedule Name
  0.462,                                  !- ASHRAE Clear Sky Optical Depth for Beam Irradiance {dimensionless}
  2.001;                                  !- ASHRAE Clear Sky Optical Depth for Diffuse Irradiance {dimensionless}

OS:SizingPeriod:DesignDay,
  {f0ef31fb-044a-44e9-b71f-1579949605d7}, !- Handle
  Buffalo Niagara Intl Ap Ann Clg .4% Condns WB=>MDB 1, !- Name
  27.8,                                   !- Maximum Dry-Bulb Temperature {C}
  9.3,                                    !- Daily Dry-Bulb Temperature Range {deltaC}
  98769,                                  !- Barometric Pressure {Pa}
  5.7,                                    !- Wind Speed {m/s}
  240,                                    !- Wind Direction {deg}
  ,                                       !- Sky Clearness
  No,                                     !- Rain Indicator
  No,                                     !- Snow Indicator
  21,                                     !- Day of Month
  7,                                      !- Month
  SummerDesignDay,                        !- Day Type
  No,                                     !- Daylight Saving Time Indicator
  Wetbulb,                                !- Humidity Condition Type
  ,                                       !- Humidity Condition Day Schedule Name
  23.8,                                   !- Wetbulb or DewPoint at Maximum Dry-Bulb {C}
  ,                                       !- Humidity Ratio at Maximum Dry-Bulb {kgWater/kgDryAir}
  ,                                       !- Enthalpy at Maximum Dry-Bulb {J/kg}
  DefaultMultipliers,                     !- Dry-Bulb Temperature Range Modifier Type
  ,                                       !- Dry-Bulb Temperature Range Modifier Day Schedule Name
  ASHRAETau,                              !- Solar Model Indicator
  ,                                       !- Beam Solar Day Schedule Name
  ,                                       !- Diffuse Solar Day Schedule Name
  0.462,                                  !- ASHRAE Clear Sky Optical Depth for Beam Irradiance {dimensionless}
  2.001;                                  !- ASHRAE Clear Sky Optical Depth for Diffuse Irradiance {dimensionless}

OS:SizingPeriod:DesignDay,
  {7f7ccc5f-6073-4bcd-9f00-3a9d141c8541}, !- Handle
  Buffalo Niagara Intl Ap Ann Htg 99.6% Condns DB 1, !- Name
  -16.3,                                  !- Maximum Dry-Bulb Temperature {C}
  0,                                      !- Daily Dry-Bulb Temperature Range {deltaC}
  98769,                                  !- Barometric Pressure {Pa}
  5.1,                                    !- Wind Speed {m/s}
  270,                                    !- Wind Direction {deg}
  0,                                      !- Sky Clearness
  No,                                     !- Rain Indicator
  No,                                     !- Snow Indicator
  21,                                     !- Day of Month
  1,                                      !- Month
  WinterDesignDay,                        !- Day Type
  No,                                     !- Daylight Saving Time Indicator
  Wetbulb,                                !- Humidity Condition Type
  ,                                       !- Humidity Condition Day Schedule Name
  -16.3,                                  !- Wetbulb or DewPoint at Maximum Dry-Bulb {C}
  ,                                       !- Humidity Ratio at Maximum Dry-Bulb {kgWater/kgDryAir}
  ,                                       !- Enthalpy at Maximum Dry-Bulb {J/kg}
  DefaultMultipliers,                     !- Dry-Bulb Temperature Range Modifier Type
  ,                                       !- Dry-Bulb Temperature Range Modifier Day Schedule Name
  ASHRAEClearSky;                         !- Solar Model Indicator

OS:ClimateZones,
  {32619e5e-9bcc-41bd-80f5-785aaca7acca}, !- Handle
  ASHRAE,                                 !- Climate Zone Institution Name 1
  ANSI/ASHRAE Standard 169,               !- Climate Zone Document Name 1
  2006,                                   !- Climate Zone Document Year 1
  6A;                                     !- Climate Zone Value 1

OS:Rendering:Color,
  {56efd0af-9969-4dd7-9acc-c2a422d9da81}, !- Handle
  Office OfficeLarge Data Center,         !- Name
  120,                                    !- Rendering Red Value
  230,                                    !- Rendering Green Value
  199;                                    !- Rendering Blue Value

OS:Rendering:Color,
  {a478acf7-d7f4-4662-af46-c2816e406d30}, !- Handle
  Office OfficeLarge Main Data Center,    !- Name
  120,                                    !- Rendering Red Value
  230,                                    !- Rendering Green Value
  199;                                    !- Rendering Blue Value

OS:Rendering:Color,
  {fee0099d-fc93-43bc-a3ea-244eb372a4b3}, !- Handle
  Office WholeBuilding - Lg Office,       !- Name
  120,                                    !- Rendering Red Value
  230,                                    !- Rendering Green Value
  199;                                    !- Rendering Blue Value

OS:Rendering:Color,
  {2f9b23d3-1435-4345-8d9a-b4c07c891783}, !- Handle
  FullServiceRestaurant Kitchen,          !- Name
  78,                                     !- Rendering Red Value
  222,                                    !- Rendering Green Value
  133;                                    !- Rendering Blue Value

OS:Rendering:Color,
  {62ae4388-17b3-473c-8a24-6c2a9118b7a4}, !- Handle
  FullServiceRestaurant Dining,           !- Name
  31,                                     !- Rendering Red Value
  169,                                    !- Rendering Green Value
  34;                                     !- Rendering Blue Value

OS:RunPeriodControl:DaylightSavingTime,
  {ec6d17f5-507b-4e53-a8a7-f0b0eaf57bf2}, !- Handle
  2nd Sunday in March,                    !- Start Date
  1st Sunday in November;                 !- End Date

OS:People:Definition,
  {010ca0f5-3251-4b7a-a0c6-ae6b0b35e2c6}, !- Handle
  FullServiceRestaurant Dining People Definition, !- Name
  People/Area,                            !- Number of People Calculation Method
  ,                                       !- Number of People {people}
  0.753473729169681,                      !- People per Space Floor Area {person/m2}
  ,                                       !- Space Floor Area per Person {m2/person}
  0.3,                                    !- Fraction Radiant
  ,                                       !- Sensible Heat Fraction
  ,                                       !- Carbon Dioxide Generation Rate {m3/s-W}
  Yes,                                    !- Enable ASHRAE 55 Comfort Warnings
  ZoneAveraged,                           !- Mean Radiant Temperature Calculation Type
  Fanger;                                 !- Thermal Comfort Model Type 1

OS:Schedule:Ruleset,
  {d76eb8d8-e289-43c1-94c8-73337f88c046}, !- Handle
  Clothing Schedule,                      !- Name
  {61bae9f2-952c-45b3-9ce2-8f200747c868}, !- Schedule Type Limits Name
  {5ef73c8a-5209-4bb6-abd6-8df1961292e6}; !- Default Day Schedule Name

OS:Schedule:Day,
  {5ef73c8a-5209-4bb6-abd6-8df1961292e6}, !- Handle
  Clothing Schedule Default Winter Clothes, !- Name
  {61bae9f2-952c-45b3-9ce2-8f200747c868}, !- Schedule Type Limits Name
  ,                                       !- Interpolate to Timestep
  24,                                     !- Hour 1
  0,                                      !- Minute 1
  1;                                      !- Value Until Time 1

OS:Schedule:Rule,
  {ae730b03-834d-480d-b87f-df0c06ac4e59}, !- Handle
  Schedule Rule 1,                        !- Name
  {d76eb8d8-e289-43c1-94c8-73337f88c046}, !- Schedule Ruleset Name
  0,                                      !- Rule Order
  {ea86a831-9ffa-4e63-9e3f-361d98db66e4}, !- Day Schedule Name
  ,                                       !- Apply Sunday
  ,                                       !- Apply Monday
  ,                                       !- Apply Tuesday
  ,                                       !- Apply Wednesday
  ,                                       !- Apply Thursday
  ,                                       !- Apply Friday
  ,                                       !- Apply Saturday
  DateRange,                              !- Date Specification Type
  5,                                      !- Start Month
  1,                                      !- Start Day
  9,                                      !- End Month
  30;                                     !- End Day

OS:Schedule:Day,
  {ea86a831-9ffa-4e63-9e3f-361d98db66e4}, !- Handle
  Clothing Schedule Summer Clothes,       !- Name
  {61bae9f2-952c-45b3-9ce2-8f200747c868}, !- Schedule Type Limits Name
  ,                                       !- Interpolate to Timestep
  24,                                     !- Hour 1
  0,                                      !- Minute 1
  0.5;                                    !- Value Until Time 1

OS:ScheduleTypeLimits,
  {61bae9f2-952c-45b3-9ce2-8f200747c868}, !- Handle
  ClothingInsulation,                     !- Name
  0,                                      !- Lower Limit Value
  ,                                       !- Upper Limit Value
  Continuous,                             !- Numeric Type
  ClothingInsulation;                     !- Unit Type

OS:Schedule:Ruleset,
  {b1a4da7b-2cab-45ed-be8e-2a8baaf43e58}, !- Handle
  Air Velocity Schedule,                  !- Name
  {31d86e10-3694-4c3d-b504-abff4a6b9a53}, !- Schedule Type Limits Name
  {b9abf5d9-ace3-471e-b01f-a66faa243701}; !- Default Day Schedule Name

OS:Schedule:Day,
  {b9abf5d9-ace3-471e-b01f-a66faa243701}, !- Handle
  Air Velocity Schedule Default,          !- Name
  {31d86e10-3694-4c3d-b504-abff4a6b9a53}, !- Schedule Type Limits Name
  ,                                       !- Interpolate to Timestep
  24,                                     !- Hour 1
  0,                                      !- Minute 1
  0.2;                                    !- Value Until Time 1

OS:ScheduleTypeLimits,
  {31d86e10-3694-4c3d-b504-abff4a6b9a53}, !- Handle
  Velocity,                               !- Name
  0,                                      !- Lower Limit Value
  ,                                       !- Upper Limit Value
  Continuous,                             !- Numeric Type
  Velocity;                               !- Unit Type

OS:Schedule:Ruleset,
  {21c42e8e-af4e-4e5e-9703-6fadf5ea4aee}, !- Handle
  Work Efficiency Schedule,               !- Name
  {2eb2fa2e-c988-4318-bf65-1ab110a34b7d}, !- Schedule Type Limits Name
  {4e3ed3b7-41a8-4000-a35c-06a8098918ad}; !- Default Day Schedule Name

OS:Schedule:Day,
  {4e3ed3b7-41a8-4000-a35c-06a8098918ad}, !- Handle
  Work Efficiency Schedule Default,       !- Name
  {2eb2fa2e-c988-4318-bf65-1ab110a34b7d}, !- Schedule Type Limits Name
  ,                                       !- Interpolate to Timestep
  24,                                     !- Hour 1
  0,                                      !- Minute 1
  0;                                      !- Value Until Time 1

OS:ScheduleTypeLimits,
  {2eb2fa2e-c988-4318-bf65-1ab110a34b7d}, !- Handle
  Fractional,                             !- Name
  0,                                      !- Lower Limit Value
  1,                                      !- Upper Limit Value
  Continuous;                             !- Numeric Type

OS:Lights:Definition,
  {96aa3d97-e76a-41dd-b7b8-9b477be96945}, !- Handle
  FullServiceRestaurant Dining Lights Definition, !- Name
  Watts/Area,                             !- Design Level Calculation Method
  ,                                       !- Lighting Level {W}
  9.57988027087165,                       !- Watts per Space Floor Area {W/m2}
  ,                                       !- Watts per Person {W/person}
  0.7,                                    !- Fraction Radiant
  0.2,                                    !- Fraction Visible
  0;                                      !- Return Air Fraction

OS:AdditionalProperties,
  {7f80a9a0-1b5f-49b7-a9c7-de498411915a}, !- Handle
  {96aa3d97-e76a-41dd-b7b8-9b477be96945}, !- Object Name
  lpd_fraction_linear_fluorescent,        !- Feature Name 1
  Double,                                 !- Feature Data Type 1
  1;                                      !- Feature Value 1

OS:ElectricEquipment:Definition,
  {e195f2ab-cd2b-4065-976d-6e7f13bd2105}, !- Handle
  FullServiceRestaurant Dining Elec Equip Definition, !- Name
  Watts/Area,                             !- Design Level Calculation Method
  ,                                       !- Design Level {W}
  64.927907633593,                        !- Watts per Space Floor Area {W/m2}
  ,                                       !- Watts per Person {W/person}
  0.25,                                   !- Fraction Latent
  0.3,                                    !- Fraction Radiant
  0;                                      !- Fraction Lost

OS:DesignSpecification:OutdoorAir,
  {f7e938ff-40b0-4f29-af6c-c2a787415c3f}, !- Handle
  FullServiceRestaurant Dining Ventilation, !- Name
  Sum,                                    !- Outdoor Air Method
  0.003539605824,                         !- Outdoor Air Flow per Person {m3/s-person}
  0.0009144,                              !- Outdoor Air Flow per Floor Area {m3/s-m2}
  ,                                       !- Outdoor Air Flow Rate {m3/s}
  ,                                       !- Outdoor Air Flow Air Changes per Hour {1/hr}
  ;                                       !- Outdoor Air Flow Rate Fraction Schedule Name

OS:DefaultScheduleSet,
  {c69abc3b-7ff8-4d20-8ef7-2cfccce50245}, !- Handle
  FullServiceRestaurant Dining Schedule Set, !- Name
  ,                                       !- Hours of Operation Schedule Name
  {54dbf36a-4b88-4dde-90e4-bccc5d6a07be}, !- Number of People Schedule Name
  {02b847a5-296b-4579-b066-fcaaf5c03e6d}, !- People Activity Level Schedule Name
  {61343d87-b8a8-40fb-9abe-c03d8906dea1}, !- Lighting Schedule Name
  {b39de463-d361-41a0-a4f3-9c127fec59a8}, !- Electric Equipment Schedule Name
  ,                                       !- Gas Equipment Schedule Name
  ,                                       !- Hot Water Equipment Schedule Name
  {351959c7-bd13-4098-94a2-b12733291ddd}, !- Infiltration Schedule Name
  ,                                       !- Steam Equipment Schedule Name
  ;                                       !- Other Equipment Schedule Name

OS:Schedule:Ruleset,
  {54dbf36a-4b88-4dde-90e4-bccc5d6a07be}, !- Handle
  RestaurantSitDown BLDG_OCC_SCH,         !- Name
  {2eb2fa2e-c988-4318-bf65-1ab110a34b7d}, !- Schedule Type Limits Name
  {f436c8b9-0688-4515-93e0-afdf41cb5617}, !- Default Day Schedule Name
  {5cda4a93-2d7b-43f1-a36f-db6f7b245661}, !- Summer Design Day Schedule Name
  {f2c6fb47-2b05-457d-a4b1-af65026b36d1}; !- Winter Design Day Schedule Name

OS:Schedule:Day,
  {f436c8b9-0688-4515-93e0-afdf41cb5617}, !- Handle
  RestaurantSitDown BLDG_OCC_SCH Default, !- Name
  {2eb2fa2e-c988-4318-bf65-1ab110a34b7d}, !- Schedule Type Limits Name
  ,                                       !- Interpolate to Timestep
  1,                                      !- Hour 1
  0,                                      !- Minute 1
  0.05,                                   !- Value Until Time 1
  6,                                      !- Hour 2
  0,                                      !- Minute 2
  0,                                      !- Value Until Time 2
  7,                                      !- Hour 3
  0,                                      !- Minute 3
  0.05,                                   !- Value Until Time 3
  9,                                      !- Hour 4
  0,                                      !- Minute 4
  0.5,                                    !- Value Until Time 4
  11,                                     !- Hour 5
  0,                                      !- Minute 5
  0.2,                                    !- Value Until Time 5
  12,                                     !- Hour 6
  0,                                      !- Minute 6
  0.3,                                    !- Value Until Time 6
  14,                                     !- Hour 7
  0,                                      !- Minute 7
  0.5,                                    !- Value Until Time 7
  15,                                     !- Hour 8
  0,                                      !- Minute 8
  0.3,                                    !- Value Until Time 8
  16,                                     !- Hour 9
  0,                                      !- Minute 9
  0.2,                                    !- Value Until Time 9
  17,                                     !- Hour 10
  0,                                      !- Minute 10
  0.25,                                   !- Value Until Time 10
  18,                                     !- Hour 11
  0,                                      !- Minute 11
  0.35,                                   !- Value Until Time 11
  19,                                     !- Hour 12
  0,                                      !- Minute 12
  0.55,                                   !- Value Until Time 12
  20,                                     !- Hour 13
  0,                                      !- Minute 13
  0.65,                                   !- Value Until Time 13
  21,                                     !- Hour 14
  0,                                      !- Minute 14
  0.7,                                    !- Value Until Time 14
  22,                                     !- Hour 15
  0,                                      !- Minute 15
  0.35,                                   !- Value Until Time 15
  24,                                     !- Hour 16
  0,                                      !- Minute 16
  0.2;                                    !- Value Until Time 16

OS:Schedule:Rule,
  {36996fd6-f6dd-4777-85a3-3de64d1cb691}, !- Handle
  Schedule Rule 2,                        !- Name
  {54dbf36a-4b88-4dde-90e4-bccc5d6a07be}, !- Schedule Ruleset Name
  1,                                      !- Rule Order
  {0ac86960-2a73-4084-9db4-e7dfeef50288}, !- Day Schedule Name
  ,                                       !- Apply Sunday
  ,                                       !- Apply Monday
  ,                                       !- Apply Tuesday
  ,                                       !- Apply Wednesday
  ,                                       !- Apply Thursday
  ,                                       !- Apply Friday
  Yes,                                    !- Apply Saturday
  DateRange,                              !- Date Specification Type
  1,                                      !- Start Month
  1,                                      !- Start Day
  12,                                     !- End Month
  31;                                     !- End Day

OS:Schedule:Day,
  {0ac86960-2a73-4084-9db4-e7dfeef50288}, !- Handle
  RestaurantSitDown BLDG_OCC_SCH Sat Day, !- Name
  {2eb2fa2e-c988-4318-bf65-1ab110a34b7d}, !- Schedule Type Limits Name
  ,                                       !- Interpolate to Timestep
  1,                                      !- Hour 1
  0,                                      !- Minute 1
  0.05,                                   !- Value Until Time 1
  6,                                      !- Hour 2
  0,                                      !- Minute 2
  0,                                      !- Value Until Time 2
  7,                                      !- Hour 3
  0,                                      !- Minute 3
  0.05,                                   !- Value Until Time 3
  9,                                      !- Hour 4
  0,                                      !- Minute 4
  0.5,                                    !- Value Until Time 4
  10,                                     !- Hour 5
  0,                                      !- Minute 5
  0.4,                                    !- Value Until Time 5
  11,                                     !- Hour 6
  0,                                      !- Minute 6
  0.2,                                    !- Value Until Time 6
  12,                                     !- Hour 7
  0,                                      !- Minute 7
  0.45,                                   !- Value Until Time 7
  14,                                     !- Hour 8
  0,                                      !- Minute 8
  0.5,                                    !- Value Until Time 8
  15,                                     !- Hour 9
  0,                                      !- Minute 9
  0.35,                                   !- Value Until Time 9
  18,                                     !- Hour 10
  0,                                      !- Minute 10
  0.3,                                    !- Value Until Time 10
  19,                                     !- Hour 11
  0,                                      !- Minute 11
  0.7,                                    !- Value Until Time 11
  20,                                     !- Hour 12
  0,                                      !- Minute 12
  0.9,                                    !- Value Until Time 12
  21,                                     !- Hour 13
  0,                                      !- Minute 13
  0.7,                                    !- Value Until Time 13
  22,                                     !- Hour 14
  0,                                      !- Minute 14
  0.65,                                   !- Value Until Time 14
  23,                                     !- Hour 15
  0,                                      !- Minute 15
  0.55,                                   !- Value Until Time 15
  24,                                     !- Hour 16
  0,                                      !- Minute 16
  0.35;                                   !- Value Until Time 16

OS:Schedule:Day,
  {5cda4a93-2d7b-43f1-a36f-db6f7b245661}, !- Handle