
OS:Version,
  {749d11dd-0623-4109-8bbd-efb95884a6fd}, !- Handle
  3.2.0;                                  !- Version Identifier

OS:Facility,
  {dcdaf90a-686a-41c3-93b7-5006b2c3eaf8}; !- Handle

OS:Site,
  {de40a76b-e31d-4038-a981-b14eaf394086}, !- Handle
  Denver Intl Ap_CO_USA,                  !- Name
  39.8061592814176,                       !- Latitude {deg}
  -104.781265854617,                      !- Longitude {deg}
  -7,                                     !- Time Zone {hr}
  497.7384,                               !- Elevation {m}
  City;                                   !- Terrain

OS:SimulationControl,
  {39261e0e-e3f4-4434-9013-2aa47e8992c4}, !- Handle
  ,                                       !- Do Zone Sizing Calculation
  ,                                       !- Do System Sizing Calculation
  ,                                       !- Do Plant Sizing Calculation
  No,                                     !- Run Simulation for Sizing Periods
  Yes,                                    !- Run Simulation for Weather File Run Periods
  ,                                       !- Loads Convergence Tolerance Value {W}
  ,                                       !- Temperature Convergence Tolerance Value {deltaC}
  ,                                       !- Solar Distribution
  ,                                       !- Maximum Number of Warmup Days
  ,                                       !- Minimum Number of Warmup Days
  Yes,                                    !- Do HVAC Sizing Simulation for Sizing Periods
  1;                                      !- Maximum Number of HVAC Sizing Simulation Passes

OS:Sizing:Parameters,
  {0027d83c-4760-43c6-b294-7f830c35e2a0}, !- Handle
  1.25,                                   !- Heating Sizing Factor
  1.15;                                   !- Cooling Sizing Factor

OS:Timestep,
  {119d6bcd-87c5-42f1-b0cf-566135e6b36f}, !- Handle
  1;                                      !- Number of Timesteps per Hour

OS:ShadowCalculation,
  {bdcfedd3-f5ab-4ef5-9f60-14bb76d279f8}, !- Handle
  PolygonClipping,                        !- Shading Calculation Method
  ,                                       !- Shading Calculation Update Frequency Method
  20,                                     !- Shading Calculation Update Frequency
  15000,                                  !- Maximum Figures in Shadow Overlap Calculations
  ,                                       !- Polygon Clipping Algorithm
  512,                                    !- Pixel Counting Resolution
  ,                                       !- Sky Diffuse Modeling Algorithm
  No,                                     !- Output External Shading Calculation Results
  No,                                     !- Disable Self-Shading Within Shading Zone Groups
  No;                                     !- Disable Self-Shading From Shading Zone Groups to Other Zones

OS:HeatBalanceAlgorithm,
  {9b084a4e-f279-4f65-8cdd-b23b6c4e7957}, !- Handle
  ConductionTransferFunction,             !- Algorithm
  200;                                    !- Surface Temperature Upper Limit {C}

OS:RunPeriod,
  {da0e77ca-ec84-4be7-a312-6f3dbfecf67e}, !- Handle
  Run Period 1,                           !- Name
  1,                                      !- Begin Month
  1,                                      !- Begin Day of Month
  12,                                     !- End Month
  31,                                     !- End Day of Month
  ,                                       !- Use Weather File Holidays and Special Days
  ,                                       !- Use Weather File Daylight Saving Period
  ,                                       !- Apply Weekend Holiday Rule
  ,                                       !- Use Weather File Rain Indicators
  ,                                       !- Use Weather File Snow Indicators
  ;                                       !- Number of Times Runperiod to be Repeated

OS:LifeCycleCost:Parameters,
  {bd7a470c-cc6c-4b25-90e2-22155fa66723}, !- Handle
  ,                                       !- Analysis Type
  ,                                       !- Discounting Convention
  ,                                       !- Inflation Approach
  ,                                       !- Real Discount Rate
  ,                                       !- Nominal Discount Rate
  ,                                       !- Inflation
  ,                                       !- Base Date Month
  ,                                       !- Base Date Year
  ,                                       !- Service Date Month
  ,                                       !- Service Date Year
  ;                                       !- Length of Study Period in Years

OS:YearDescription,
  {1bb54136-e19a-41a5-8a2d-02fc9d79c80d}, !- Handle
  2019,                                   !- Calendar Year
  ,                                       !- Day of Week for Start Day
  ;                                       !- Is Leap Year

OS:WeatherFile,
  {e931c47d-cd43-4bf1-b3ff-2c4f7274d09f}, !- Handle
  Denver Intl Ap,                         !- City
  CO,                                     !- State Province Region
  USA,                                    !- Country
  TMY3,                                   !- Data Source
  725650,                                 !- WMO Number
  39.83,                                  !- Latitude {deg}
  -104.65,                                !- Longitude {deg}
  -7,                                     !- Time Zone {hr}
  1650,                                   !- Elevation {m}
  C:/AUMC/ev/weather/USA_CO_Denver.Intl.AP.725650_TMY3.epw, !- Url
  ;                                       !- Checksum

OS:Site:WaterMainsTemperature,
  {d6816c17-44b2-4af9-80dd-c856bc0d0f52}, !- Handle
  Correlation,                            !- Calculation Method
  ,                                       !- Temperature Schedule Name
  10.8,                                   !- Annual Average Outdoor Air Temperature {C}
  23.2;                                   !- Maximum Difference In Monthly Average Outdoor Air Temperatures {deltaC}

OS:SizingPeriod:DesignDay,
  {c197130f-2b43-49fd-a9a1-75f987fda3a2}, !- Handle
  Denver Intl Ap Ann Clg .4% Condns DB=>MWB 1, !- Name
  34.6,                                   !- Maximum Dry-Bulb Temperature {C}
  15.2,                                   !- Daily Dry-Bulb Temperature Range {deltaC}
  15.7,                                   !- Humidity Indicating Conditions at Maximum Dry-Bulb
  83011,                                  !- Barometric Pressure {Pa}
  4.2,                                    !- Wind Speed {m/s}
  80,                                     !- Wind Direction {deg}
  0,                                      !- Sky Clearness
  0,                                      !- Rain Indicator
  0,                                      !- Snow Indicator
  21,                                     !- Day of Month
  7,                                      !- Month
  SummerDesignDay,                        !- Day Type
  0,                                      !- Daylight Saving Time Indicator
  Wetbulb,                                !- Humidity Indicating Type
  ,                                       !- Humidity Indicating Day Schedule Name
  DefaultMultipliers,                     !- Dry-Bulb Temperature Range Modifier Type
  ,                                       !- Dry-Bulb Temperature Range Modifier Schedule Name
  ASHRAETau,                              !- Solar Model Indicator
  ,                                       !- Beam Solar Day Schedule Name
  ,                                       !- Diffuse Solar Day Schedule Name
  0.424,                                  !- ASHRAE Taub {dimensionless}
  2.012;                                  !- ASHRAE Taud {dimensionless}

OS:SizingPeriod:DesignDay,
  {c37b1459-3e9f-4146-a4d7-bdd59d5e697d}, !- Handle
  Denver Intl Ap Ann Clg .4% Condns WB=>MDB 1, !- Name
  27.3,                                   !- Maximum Dry-Bulb Temperature {C}
  15.2,                                   !- Daily Dry-Bulb Temperature Range {deltaC}
  18.3,                                   !- Humidity Indicating Conditions at Maximum Dry-Bulb
  83011,                                  !- Barometric Pressure {Pa}
  4.2,                                    !- Wind Speed {m/s}
  80,                                     !- Wind Direction {deg}
  0,                                      !- Sky Clearness
  0,                                      !- Rain Indicator
  0,                                      !- Snow Indicator
  21,                                     !- Day of Month
  7,                                      !- Month
  SummerDesignDay,                        !- Day Type
  0,                                      !- Daylight Saving Time Indicator
  Wetbulb,                                !- Humidity Indicating Type
  ,                                       !- Humidity Indicating Day Schedule Name
  DefaultMultipliers,                     !- Dry-Bulb Temperature Range Modifier Type
  ,                                       !- Dry-Bulb Temperature Range Modifier Schedule Name
  ASHRAETau,                              !- Solar Model Indicator
  ,                                       !- Beam Solar Day Schedule Name
  ,                                       !- Diffuse Solar Day Schedule Name
  0.424,                                  !- ASHRAE Taub {dimensionless}
  2.012;                                  !- ASHRAE Taud {dimensionless}

OS:SizingPeriod:DesignDay,
  {7d5c78ed-effd-4435-84e5-6b76c6ee531a}, !- Handle
  Denver Intl Ap Ann Htg 99.6% Condns DB 1, !- Name
  -17.4,                                  !- Maximum Dry-Bulb Temperature {C}
  0,                                      !- Daily Dry-Bulb Temperature Range {deltaC}
  -17.4,                                  !- Humidity Indicating Conditions at Maximum Dry-Bulb
  83011,                                  !- Barometric Pressure {Pa}
  3.3,                                    !- Wind Speed {m/s}
  160,                                    !- Wind Direction {deg}
  0,                                      !- Sky Clearness
  0,                                      !- Rain Indicator
  0,                                      !- Snow Indicator
  21,                                     !- Day of Month
  12,                                     !- Month
  WinterDesignDay,                        !- Day Type
  0,                                      !- Daylight Saving Time Indicator
  Wetbulb,                                !- Humidity Indicating Type
  ,                                       !- Humidity Indicating Day Schedule Name
  DefaultMultipliers,                     !- Dry-Bulb Temperature Range Modifier Type
  ,                                       !- Dry-Bulb Temperature Range Modifier Schedule Name
  ASHRAEClearSky;                         !- Solar Model Indicator

OS:ClimateZones,
  {4f7193c9-3170-4a93-ad6e-3cda74153d8d}, !- Handle
  ASHRAE,                                 !- Climate Zone Institution Name 1
  ANSI/ASHRAE Standard 169,               !- Climate Zone Document Name 1
  2006,                                   !- Climate Zone Document Year 1
  5B;                                     !- Climate Zone Value 1

OS:Rendering:Color,
  {4d425290-8c0e-48f8-b2a7-802b4ea1a37d}, !- Handle
  Office WholeBuilding - Md Office,       !- Name
  120,                                    !- Rendering Red Value
  230,                                    !- Rendering Green Value
  199;                                    !- Rendering Blue Value

OS:RunPeriodControl:DaylightSavingTime,
  {fba500d5-b1d3-47d5-8e74-46d02864873f}, !- Handle
  2nd Sunday in March,                    !- Start Date
  1st Sunday in November;                 !- End Date

OS:People:Definition,
  {08c016e3-6da9-41df-ac21-5dd16c53528f}, !- Handle
  Office WholeBuilding - Md Office People Definition, !- Name
  People/Area,                            !- Number of People Calculation Method
  ,                                       !- Number of People {people}
  0.0538195520835486,                     !- People per Space Floor Area {person/m2}
  ,                                       !- Space Floor Area per Person {m2/person}
  0.3,                                    !- Fraction Radiant
  ,                                       !- Sensible Heat Fraction
  ,                                       !- Carbon Dioxide Generation Rate {m3/s-W}
  Yes,                                    !- Enable ASHRAE 55 Comfort Warnings
  ZoneAveraged,                           !- Mean Radiant Temperature Calculation Type
  Fanger;                                 !- Thermal Comfort Model Type 1

OS:Schedule:Ruleset,
  {3c6676a4-a2d8-4932-bc61-0b39f023793e}, !- Handle
  Clothing Schedule,                      !- Name
  {5483d1ee-cf93-42b2-b8e9-cb54319a7911}, !- Schedule Type Limits Name
  {c4e8a1fd-2950-443d-99f1-b5634105e4e5}; !- Default Day Schedule Name

OS:Schedule:Day,
  {c4e8a1fd-2950-443d-99f1-b5634105e4e5}, !- Handle
  Clothing Schedule Default Winter Clothes, !- Name
  {5483d1ee-cf93-42b2-b8e9-cb54319a7911}, !- Schedule Type Limits Name
  ,                                       !- Interpolate to Timestep
  24,                                     !- Hour 1
  0,                                      !- Minute 1
  1;                                      !- Value Until Time 1

OS:Schedule:Rule,
  {d7bedae8-13cd-453c-87af-85451c72689b}, !- Handle
  Schedule Rule 1,                        !- Name
  {3c6676a4-a2d8-4932-bc61-0b39f023793e}, !- Schedule Ruleset Name
  0,                                      !- Rule Order
  {6e683cbe-0da9-4498-a2fd-7fe0ac5045b1}, !- Day Schedule Name
  ,                                       !- Apply Sunday
  ,                                       !- Apply Monday
  ,                                       !- Apply Tuesday
  ,                                       !- Apply Wednesday
  ,                                       !- Apply Thursday
  ,                                       !- Apply Friday
  ,                                       !- Apply Saturday
  DateRange,                              !- Date Specification Type
  5,                                      !- Start Month
  1,                                      !- Start Day
  9,                                      !- End Month
  30;                                     !- End Day

OS:Schedule:Day,
  {6e683cbe-0da9-4498-a2fd-7fe0ac5045b1}, !- Handle
  Clothing Schedule Summer Clothes,       !- Name
  {5483d1ee-cf93-42b2-b8e9-cb54319a7911}, !- Schedule Type Limits Name
  ,                                       !- Interpolate to Timestep
  24,                                     !- Hour 1
  0,                                      !- Minute 1
  0.5;                                    !- Value Until Time 1

OS:ScheduleTypeLimits,
  {5483d1ee-cf93-42b2-b8e9-cb54319a7911}, !- Handle
  ClothingInsulation,                     !- Name
  0,                                      !- Lower Limit Value
  ,                                       !- Upper Limit Value
  Continuous,                             !- Numeric Type
  ClothingInsulation;                     !- Unit Type

OS:Schedule:Ruleset,
  {c840fe40-2700-4c9e-b639-5b21aab99574}, !- Handle
  Air Velocity Schedule,                  !- Name
  {5487a06f-69ce-4dd1-bba3-926efa78df01}, !- Schedule Type Limits Name
  {3028ca6a-a35c-459b-a60f-1990b28663ea}; !- Default Day Schedule Name

OS:Schedule:Day,
  {3028ca6a-a35c-459b-a60f-1990b28663ea}, !- Handle
  Air Velocity Schedule Default,          !- Name
  {5487a06f-69ce-4dd1-bba3-926efa78df01}, !- Schedule Type Limits Name
  ,                                       !- Interpolate to Timestep
  24,                                     !- Hour 1
  0,                                      !- Minute 1
  0.2;                                    !- Value Until Time 1

OS:ScheduleTypeLimits,
  {5487a06f-69ce-4dd1-bba3-926efa78df01}, !- Handle
  Velocity,                               !- Name
  0,                                      !- Lower Limit Value
  ,                                       !- Upper Limit Value
  Continuous,                             !- Numeric Type
  Velocity;                               !- Unit Type

OS:Schedule:Ruleset,
  {a6c02df3-5ce3-4330-bde4-6ab2cbced45e}, !- Handle
  Work Efficiency Schedule,               !- Name
  {fb55d3c0-8134-41f6-9cf2-6759222af3e4}, !- Schedule Type Limits Name
  {58bdb168-9396-4887-9fc1-740c36aee538}; !- Default Day Schedule Name

OS:Schedule:Day,
  {58bdb168-9396-4887-9fc1-740c36aee538}, !- Handle
  Work Efficiency Schedule Default,       !- Name
  {fb55d3c0-8134-41f6-9cf2-6759222af3e4}, !- Schedule Type Limits Name
  ,                                       !- Interpolate to Timestep
  24,                                     !- Hour 1
  0,                                      !- Minute 1
  0;                                      !- Value Until Time 1

OS:ScheduleTypeLimits,
  {fb55d3c0-8134-41f6-9cf2-6759222af3e4}, !- Handle
  Fractional,                             !- Name
  0,                                      !- Lower Limit Value
  1,                                      !- Upper Limit Value
  Continuous;                             !- Numeric Type

OS:Lights:Definition,
  {ca9f6e16-0741-489f-ac5b-4f459f1a261e}, !- Handle
  Office WholeBuilding - Md Office Lights Definition, !- Name
  Watts/Area,                             !- Design Level Calculation Method
  ,                                       !- Lighting Level {W}
  6.88890266669422,                       !- Watts per Space Floor Area {W/m2}
  ,                                       !- Watts per Person {W/person}
  0.7,                                    !- Fraction Radiant
  0.2,                                    !- Fraction Visible
  0;                                      !- Return Air Fraction

OS:AdditionalProperties,
  {3e7273a9-5edc-4ec1-8190-cef641e1e290}, !- Handle
  {ca9f6e16-0741-489f-ac5b-4f459f1a261e}, !- Object Name
  lpd_fraction_linear_fluorescent,        !- Feature Name 1
  Double,                                 !- Feature Data Type 1
  1;                                      !- Feature Value 1

OS:ElectricEquipment:Definition,
  {52212bc0-175a-4e4e-ae6f-8c071daea56a}, !- Handle
  Office WholeBuilding - Md Office Elec Equip Definition, !- Name
  Watts/Area,                             !- Design Level Calculation Method
  ,                                       !- Design Level {W}
  8.07293281253229,                       !- Watts per Space Floor Area {W/m2}
  ,                                       !- Watts per Person {W/person}
  0,                                      !- Fraction Latent
  0.5,                                    !- Fraction Radiant
  0;                                      !- Fraction Lost

OS:DesignSpecification:OutdoorAir,
  {67fb5bc8-a1bb-4bf6-95e3-73ac276e2ce5}, !- Handle
  Office WholeBuilding - Md Office Ventilation, !- Name
  Sum,                                    !- Outdoor Air Method
  ,                                       !- Outdoor Air Flow per Person {m3/s-person}
  0.0004318,                              !- Outdoor Air Flow per Floor Area {m3/s-m2}
  ,                                       !- Outdoor Air Flow Rate {m3/s}
  ,                                       !- Outdoor Air Flow Air Changes per Hour {1/hr}
  ;                                       !- Outdoor Air Flow Rate Fraction Schedule Name

OS:DefaultScheduleSet,
  {de66304d-9a2b-45d1-909f-7f354832e654}, !- Handle
  Office WholeBuilding - Md Office Schedule Set, !- Name
  ,                                       !- Hours of Operation Schedule Name
  {0018ab25-df75-4af3-8912-81461e10bb8b}, !- Number of People Schedule Name
  {201ed28d-ff2f-49ff-92a9-40d780d2b7b6}, !- People Activity Level Schedule Name
  {92e9a76a-69bf-4baa-bfa7-d32ef5bacd6d}, !- Lighting Schedule Name
  {e1ed43dc-709f-421f-9058-de920f3b42a0}, !- Electric Equipment Schedule Name
  ,                                       !- Gas Equipment Schedule Name
  ,                                       !- Hot Water Equipment Schedule Name
  {7734388f-79f3-4049-970d-192a59906852}, !- Infiltration Schedule Name
  ,                                       !- Steam Equipment Schedule Name
  ;                                       !- Other Equipment Schedule Name

OS:Schedule:Ruleset,
  {0018ab25-df75-4af3-8912-81461e10bb8b}, !- Handle
  OfficeMedium BLDG_OCC_SCH,              !- Name
  {fb55d3c0-8134-41f6-9cf2-6759222af3e4}, !- Schedule Type Limits Name
  {9fe45259-a8be-4c12-a2bd-fccbd88d63a0}, !- Default Day Schedule Name
  {df120e37-fa79-4a87-abf8-78f5b8b28b6f}, !- Summer Design Day Schedule Name
  {842edf3f-f96d-4d79-aa88-254b72f50775}; !- Winter Design Day Schedule Name

OS:Schedule:Day,
  {9fe45259-a8be-4c12-a2bd-fccbd88d63a0}, !- Handle
  OfficeMedium BLDG_OCC_SCH Default,      !- Name
  {fb55d3c0-8134-41f6-9cf2-6759222af3e4}, !- Schedule Type Limits Name
  Yes,                                    !- Interpolate to Timestep
  8,                                      !- Hour 1
  0,                                      !- Minute 1
  0,                                      !- Value Until Time 1
  16,                                     !- Hour 2
  0,                                      !- Minute 2
  0.05,                                   !- Value Until Time 2
  24,                                     !- Hour 3
  0,                                      !- Minute 3
  0;                                      !- Value Until Time 3

OS:Schedule:Rule,
  {35ba2e44-851a-475c-bb3d-f3673f0c7bda}, !- Handle
  Schedule Rule 2,                        !- Name
  {0018ab25-df75-4af3-8912-81461e10bb8b}, !- Schedule Ruleset Name
  1,                                      !- Rule Order
  {faf941d0-c6b0-4ab9-bd5b-945ff8faf77e}, !- Day Schedule Name
  ,                                       !- Apply Sunday
  ,                                       !- Apply Monday
  ,                                       !- Apply Tuesday
  ,                                       !- Apply Wednesday
  ,                                       !- Apply Thursday
  ,                                       !- Apply Friday
  Yes,                                    !- Apply Saturday
  DateRange,                              !- Date Specification Type
  1,                                      !- Start Month
  1,                                      !- Start Day
  12,                                     !- End Month
  31;                                     !- End Day

OS:Schedule:Day,
  {faf941d0-c6b0-4ab9-bd5b-945ff8faf77e}, !- Handle
  OfficeMedium BLDG_OCC_SCH Sat Day,      !- Name
  {fb55d3c0-8134-41f6-9cf2-6759222af3e4}, !- Schedule Type Limits Name
  Yes,                                    !- Interpolate to Timestep
  6,                                      !- Hour 1
  30,                                     !- Minute 1
  0,                                      !- Value Until Time 1
  7,                                      !- Hour 2
  30,                                     !- Minute 2
  0.05,                                   !- Value Until Time 2
  8,                                      !- Hour 3
  30,                                     !- Minute 3
  0.1,                                    !- Value Until Time 3
  9,                                      !- Hour 4
  30,                                     !- Minute 4
  0.3,                                    !- Value Until Time 4
  10,                                     !- Hour 5
  30,                                     !- Minute 5
  0.3,                                    !- Value Until Time 5
  11,                                     !- Hour 6
  30,                                     !- Minute 6
  0.25,                                   !- Value Until Time 6
  12,                                     !- Hour 7
  30,                                     !- Minute 7
  0.2,                                    !- Value Until Time 7
  13,                                     !- Hour 8
  30,                                     !- Minute 8
  0.15,                                   !- Value Until Time 8
  14,                                     !- Hour 9
  30,                                     !- Minute 9
  0.1,                                    !- Value Until Time 9
  15,                                     !- Hour 10
  30,                                     !- Minute 10
  0.1,                                    !- Value Until Time 10
  16,                                     !- Hour 11
  30,                                     !- Minute 11
  0.075,                                  !- Value Until Time 11
  17,                                     !- Hour 12
  30,                                     !- Minute 12
  0.05,                                   !- Value Until Time 12
  18,                                     !- Hour 13
  30,                                     !- Minute 13
  0.025,                                  !- Value Until Time 13
  19,                                     !- Hour 14
  30,                                     !- Minute 14
  0,                                      !- Value Until Time 14
  20,                                     !- Hour 15
  30,                                     !- Minute 15
  0,                                      !- Value Until Time 15
  24,                                     !- Hour 16
  0,                                      !- Minute 16
  0;                                      !- Value Until Time 16

OS:Schedule:Day,
  {df120e37-fa79-4a87-abf8-78f5b8b28b6f}, !- Handle
  OfficeMedium BLDG_OCC_SCH Summer Design Day, !- Name
  {fb55d3c0-8134-41f6-9cf2-6759222af3e4}, !- Schedule Type Limits Name
  ,                                       !- Interpolate to Timestep
  6,                                      !- Hour 1
  0,                                      !- Minute 1
  0,                                      !- Value Until Time 1
  22,                                     !- Hour 2
  0,                                      !- Minute 2
  1,                                      !- Value Until Time 2
  24,                                     !- Hour 3
  0,                                      !- Minute 3
  0.05;                                   !- Value Until Time 3

OS:Schedule:Rule,
  {3dff600b-fe3f-4022-8969-6e90c2babcfb}, !- Handle
  Schedule Rule 3,                        !- Name
  {0018ab25-df75-4af3-8912-81461e10bb8b}, !- Schedule Ruleset Name
  0,                                      !- Rule Order
  {14a5d34e-8f2c-438c-8089-3195356067ef}, !- Day Schedule Name
  ,                                       !- Apply Sunday
  Yes,                                    !- Apply Monday
  Yes,                                    !- Apply Tuesday
  Yes,                                    !- Apply Wednesday
  Yes,                                    !- Apply Thursday
  Yes,                                    !- Apply Friday
  ,                                       !- Apply Saturday
  DateRange,                              !- Date Specification Type
  1,                                      !- Start Month
  1,                                      !- Start Day
  12,                                     !- End Month
  31;                                     !- End Day

OS:Schedule:Day,
  {14a5d34e-8f2c-438c-8089-3195356067ef}, !- Handle
  OfficeMedium BLDG_OCC_SCH Wkdy Day,     !- Name
  {fb55d3c0-8134-41f6-9cf2-6759222af3e4}, !- Schedule Type Limits Name
  Yes,                                    !- Interpolate to Timestep
  2,                                      !- Hour 1
  0,                                      !- Minute 1
  0,                                      !- Value Until Time 1
  5,                                      !- Hour 2
  30,                                     !- Minute 2
  0,                                      !- Value Until Time 2
  6,                                      !- Hour 3
  30,                                     !- Minute 3
  0.1,                                    !- Value Until Time 3
  7,                                      !- Hour 4
  30,                                     !- Minute 4
  0.2,                                    !- Value Until Time 4
  8,                                      !- Hour 5
  30,                                     !- Minute 5
  0.95,                                   !- Value Until Time 5
  9,                                      !- Hour 6
  30,                                     !- Minute 6
  0.95,                                   !- Value Until Time 6
  10,                                     !- Hour 7
  30,                                     !- Minute 7
  0.95,                                   !- Value Until Time 7
  11,                                     !- Hour 8
  30,                                     !- Minute 8
  0.5,                                    !- Value Until Time 8
  12,                                     !- Hour 9
  30,                                     !- Minute 9
  0.95,                                   !- Value Until Time 9
  13,                                     !- Hour 10
  30,                                     !- Minute 10
  0.95,                                   !- Value Until Time 10
  14,                                     !- Hour 11
  30,                                     !- Minute 11
  0.95,                                   !- Value Until Time 11
  15,                                     !- Hour 12
  30,                                     !- Minute 12
  0.3,                                    !- Value Until Time 12
  16,                                     !- Hour 13
  30,                                     !- Minute 13
  0.1,                                    !- Value Until Time 13
  17,                                     !- Hour 14