
OS:Version,
  {913c94bc-b775-4830-8b8f-837fff39730b}, !- Handle
  3.5.1;                                  !- Version Identifier

OS:Facility,
  {392933e4-caed-4518-bf16-4ff1e72a04a3}; !- Handle

OS:Site,
  {7a900737-30f8-49c8-89bd-37a0f2157fde}, !- Handle
  Buffalo Niagara Intl Ap_NY_USA,         !- Name
  42.8132927350264,                       !- Latitude {deg}
  -78.8501565714965,                      !- Longitude {deg}
  -5,                                     !- Time Zone {hr}
  215,                                    !- Elevation {m}
  City;                                   !- Terrain

OS:SimulationControl,
  {b85f1ef8-c39c-4c45-9322-fab53bcdb506}, !- Handle
  ,                                       !- Do Zone Sizing Calculation
  ,                                       !- Do System Sizing Calculation
  ,                                       !- Do Plant Sizing Calculation
  No,                                     !- Run Simulation for Sizing Periods
  Yes,                                    !- Run Simulation for Weather File Run Periods
  ,                                       !- Loads Convergence Tolerance Value {W}
  ,                                       !- Temperature Convergence Tolerance Value {deltaC}
  ,                                       !- Solar Distribution
  ,                                       !- Maximum Number of Warmup Days
  ,                                       !- Minimum Number of Warmup Days
  No,                                     !- Do HVAC Sizing Simulation for Sizing Periods
  1;                                      !- Maximum Number of HVAC Sizing Simulation Passes

OS:Sizing:Parameters,
  {e8266fa2-4469-42f3-ae8c-74b27615eab9}, !- Handle
  1.25,                                   !- Heating Sizing Factor
  1.15;                                   !- Cooling Sizing Factor

OS:Timestep,
  {31092d25-60a9-4c27-8fa4-fcf1c23d08a2}, !- Handle
  1;                                      !- Number of Timesteps per Hour

OS:ShadowCalculation,
  {a690235e-9f3e-4fe4-9788-3333bd3f52a3}, !- Handle
  PolygonClipping,                        !- Shading Calculation Method
  ,                                       !- Shading Calculation Update Frequency Method
  20,                                     !- Shading Calculation Update Frequency
  15000,                                  !- Maximum Figures in Shadow Overlap Calculations
  ,                                       !- Polygon Clipping Algorithm
  512,                                    !- Pixel Counting Resolution
  ,                                       !- Sky Diffuse Modeling Algorithm
  No,                                     !- Output External Shading Calculation Results
  No,                                     !- Disable Self-Shading Within Shading Zone Groups
  No;                                     !- Disable Self-Shading From Shading Zone Groups to Other Zones

OS:HeatBalanceAlgorithm,
  {463de567-b962-4237-82a3-f9edb0cb6c3b}, !- Handle
  ConductionTransferFunction,             !- Algorithm
  200;                                    !- Surface Temperature Upper Limit {C}

OS:RunPeriod,
  {531dea08-2c0c-45ff-ab2a-c8ebbdc69613}, !- Handle
  Run Period 1,                           !- Name
  1,                                      !- Begin Month
  1,                                      !- Begin Day of Month
  12,                                     !- End Month
  31,                                     !- End Day of Month
  ,                                       !- Use Weather File Holidays and Special Days
  ,                                       !- Use Weather File Daylight Saving Period
  ,                                       !- Apply Weekend Holiday Rule
  ,                                       !- Use Weather File Rain Indicators
  ,                                       !- Use Weather File Snow Indicators
  ;                                       !- Number of Times Runperiod to be Repeated

OS:LifeCycleCost:Parameters,
  {7d8f69a8-384b-47fc-beca-e970e4b95553}, !- Handle
  ,                                       !- Analysis Type
  ,                                       !- Discounting Convention
  ,                                       !- Inflation Approach
  ,                                       !- Real Discount Rate
  ,                                       !- Nominal Discount Rate
  ,                                       !- Inflation
  ,                                       !- Base Date Month
  ,                                       !- Base Date Year
  ,                                       !- Service Date Month
  ,                                       !- Service Date Year
  ;                                       !- Length of Study Period in Years

OS:YearDescription,
  {f4bb9585-b850-4795-8a96-a7bcf375d557}, !- Handle
  2017,                                   !- Calendar Year
  ,                                       !- Day of Week for Start Day
  ;                                       !- Is Leap Year

OS:WeatherFile,
  {33e00e95-5519-4874-99dd-239d921a1109}, !- Handle
  Buffalo Niagara Intl Ap,                !- City
  NY,                                     !- State Province Region
  USA,                                    !- Country
  TMY3,                                   !- Data Source
  725280,                                 !- WMO Number
  42.93,                                  !- Latitude {deg}
  -78.73,                                 !- Longitude {deg}
  -5,                                     !- Time Zone {hr}
  215,                                    !- Elevation {m}
  C:/Users/tanus/urbanopt-des/weather/USA_NY_Buffalo-Greater.Buffalo.Intl.AP.725280_TMY3.epw, !- Url
  ;                                       !- Checksum

OS:Site:WaterMainsTemperature,
  {ba50dc8b-b55e-45c0-901b-ff0569eb79be}, !- Handle
  Correlation,                            !- Calculation Method
  ,                                       !- Temperature Schedule Name
  8.96666666666667,                       !- Annual Average Outdoor Air Temperature {C}
  26.2;                                   !- Maximum Difference In Monthly Average Outdoor Air Temperatures {deltaC}

OS:SizingPeriod:DesignDay,
  {4f699498-1d78-4d0d-a0a5-c7b0dbdfa7b8}, !- Handle
  Buffalo Niagara Intl Ap Ann Clg .4% Condns DB=>MWB 1, !- Name
  30.3,                                   !- Maximum Dry-Bulb Temperature {C}
  9.3,                                    !- Daily Dry-Bulb Temperature Range {deltaC}
  98769,                                  !- Barometric Pressure {Pa}
  5.7,                                    !- Wind Speed {m/s}
  240,                                    !- Wind Direction {deg}
  ,                                       !- Sky Clearness
  No,                                     !- Rain Indicator
  No,                                     !- Snow Indicator
  21,                                     !- Day of Month
  7,                                      !- Month
  SummerDesignDay,                        !- Day Type
  No,                                     !- Daylight Saving Time Indicator
  Wetbulb,                                !- Humidity Condition Type
  ,                                       !- Humidity Condition Day Schedule Name
  21.8,                                   !- Wetbulb or DewPoint at Maximum Dry-Bulb {C}
  ,                                       !- Humidity Ratio at Maximum Dry-Bulb {kgWater/kgDryAir}
  ,                                       !- Enthalpy at Maximum Dry-Bulb {J/kg}
  DefaultMultipliers,                     !- Dry-Bulb Temperature Range Modifier Type
  ,                                       !- Dry-Bulb Temperature Range Modifier Day Schedule Name
  ASHRAETau,                              !- Solar Model Indicator
  ,                                       !- Beam Solar Day Schedule Name
  ,                                       !- Diffuse Solar Day Schedule Name
  0.462,                                  !- ASHRAE Clear Sky Optical Depth for Beam Irradiance {dimensionless}
  2.001;                                  !- ASHRAE Clear Sky Optical Depth for Diffuse Irradiance {dimensionless}

OS:SizingPeriod:DesignDay,
  {cb6d7d1b-884e-4c80-96b1-5d919fa200c7}, !- Handle
  Buffalo Niagara Intl Ap Ann Clg .4% Condns WB=>MDB 1, !- Name
  27.8,                                   !- Maximum Dry-Bulb Temperature {C}
  9.3,                                    !- Daily Dry-Bulb Temperature Range {deltaC}
  98769,                                  !- Barometric Pressure {Pa}
  5.7,                                    !- Wind Speed {m/s}
  240,                                    !- Wind Direction {deg}
  ,                                       !- Sky Clearness
  No,                                     !- Rain Indicator
  No,                                     !- Snow Indicator
  21,                                     !- Day of Month
  7,                                      !- Month
  SummerDesignDay,                        !- Day Type
  No,                                     !- Daylight Saving Time Indicator
  Wetbulb,                                !- Humidity Condition Type
  ,                                       !- Humidity Condition Day Schedule Name
  23.8,                                   !- Wetbulb or DewPoint at Maximum Dry-Bulb {C}
  ,                                       !- Humidity Ratio at Maximum Dry-Bulb {kgWater/kgDryAir}
  ,                                       !- Enthalpy at Maximum Dry-Bulb {J/kg}
  DefaultMultipliers,                     !- Dry-Bulb Temperature Range Modifier Type
  ,                                       !- Dry-Bulb Temperature Range Modifier Day Schedule Name
  ASHRAETau,                              !- Solar Model Indicator
  ,                                       !- Beam Solar Day Schedule Name
  ,                                       !- Diffuse Solar Day Schedule Name
  0.462,                                  !- ASHRAE Clear Sky Optical Depth for Beam Irradiance {dimensionless}
  2.001;                                  !- ASHRAE Clear Sky Optical Depth for Diffuse Irradiance {dimensionless}

OS:SizingPeriod:DesignDay,
  {641b622b-d4b5-4b89-9630-0d615af84469}, !- Handle
  Buffalo Niagara Intl Ap Ann Htg 99.6% Condns DB 1, !- Name
  -16.3,                                  !- Maximum Dry-Bulb Temperature {C}
  0,                                      !- Daily Dry-Bulb Temperature Range {deltaC}
  98769,                                  !- Barometric Pressure {Pa}
  5.1,                                    !- Wind Speed {m/s}
  270,                                    !- Wind Direction {deg}
  0,                                      !- Sky Clearness
  No,                                     !- Rain Indicator
  No,                                     !- Snow Indicator
  21,                                     !- Day of Month
  1,                                      !- Month
  WinterDesignDay,                        !- Day Type
  No,                                     !- Daylight Saving Time Indicator
  Wetbulb,                                !- Humidity Condition Type
  ,                                       !- Humidity Condition Day Schedule Name
  -16.3,                                  !- Wetbulb or DewPoint at Maximum Dry-Bulb {C}
  ,                                       !- Humidity Ratio at Maximum Dry-Bulb {kgWater/kgDryAir}
  ,                                       !- Enthalpy at Maximum Dry-Bulb {J/kg}
  DefaultMultipliers,                     !- Dry-Bulb Temperature Range Modifier Type
  ,                                       !- Dry-Bulb Temperature Range Modifier Day Schedule Name
  ASHRAEClearSky;                         !- Solar Model Indicator

OS:ClimateZones,
  {3b958cc3-f8b8-44d0-a912-34272a1fa14d}, !- Handle
  ASHRAE,                                 !- Climate Zone Institution Name 1
  ANSI/ASHRAE Standard 169,               !- Climate Zone Document Name 1
  2006,                                   !- Climate Zone Document Year 1
  6A;                                     !- Climate Zone Value 1

OS:Rendering:Color,
  {59d83931-25d7-4d2a-bf20-c5345553c08d}, !- Handle
  FullServiceRestaurant Kitchen,          !- Name
  78,                                     !- Rendering Red Value
  222,                                    !- Rendering Green Value
  133;                                    !- Rendering Blue Value

OS:Rendering:Color,
  {a6331b3c-65fb-4dcf-8295-a5516d8ab115}, !- Handle
  FullServiceRestaurant Dining,           !- Name
  31,                                     !- Rendering Red Value
  169,                                    !- Rendering Green Value
  34;                                     !- Rendering Blue Value

OS:RunPeriodControl:DaylightSavingTime,
  {1e73d97e-2f86-44b4-97d3-3a9dad9e543e}, !- Handle
  2nd Sunday in March,                    !- Start Date
  1st Sunday in November;                 !- End Date

OS:People:Definition,
  {ace7edbc-2bba-4672-b204-ce1476076a69}, !- Handle
  FullServiceRestaurant Dining People Definition, !- Name
  People/Area,                            !- Number of People Calculation Method
  ,                                       !- Number of People {people}
  0.753473729169681,                      !- People per Space Floor Area {person/m2}
  ,                                       !- Space Floor Area per Person {m2/person}
  0.3,                                    !- Fraction Radiant
  ,                                       !- Sensible Heat Fraction
  ,                                       !- Carbon Dioxide Generation Rate {m3/s-W}
  Yes,                                    !- Enable ASHRAE 55 Comfort Warnings
  ZoneAveraged,                           !- Mean Radiant Temperature Calculation Type
  Fanger;                                 !- Thermal Comfort Model Type 1

OS:Schedule:Ruleset,
  {d0091c61-eabf-405b-b79e-0f5cb7ff6cc9}, !- Handle
  Clothing Schedule,                      !- Name
  {0cf923e6-152e-48de-bb18-e1edfa302441}, !- Schedule Type Limits Name
  {de299e87-9114-4a62-b772-57cdaebd710c}; !- Default Day Schedule Name

OS:Schedule:Day,
  {de299e87-9114-4a62-b772-57cdaebd710c}, !- Handle
  Clothing Schedule Default Winter Clothes, !- Name
  {0cf923e6-152e-48de-bb18-e1edfa302441}, !- Schedule Type Limits Name
  ,                                       !- Interpolate to Timestep
  24,                                     !- Hour 1
  0,                                      !- Minute 1
  1;                                      !- Value Until Time 1

OS:Schedule:Rule,
  {9b1e7b4a-b0ae-4301-b2aa-cf82bafcda6c}, !- Handle
  Schedule Rule 1,                        !- Name
  {d0091c61-eabf-405b-b79e-0f5cb7ff6cc9}, !- Schedule Ruleset Name
  0,                                      !- Rule Order
  {6bea7d14-ebce-4f6e-beee-b7d034c3df57}, !- Day Schedule Name
  ,                                       !- Apply Sunday
  ,                                       !- Apply Monday
  ,                                       !- Apply Tuesday
  ,                                       !- Apply Wednesday
  ,                                       !- Apply Thursday
  ,                                       !- Apply Friday
  ,                                       !- Apply Saturday
  DateRange,                              !- Date Specification Type
  5,                                      !- Start Month
  1,                                      !- Start Day
  9,                                      !- End Month
  30;                                     !- End Day

OS:Schedule:Day,
  {6bea7d14-ebce-4f6e-beee-b7d034c3df57}, !- Handle
  Clothing Schedule Summer Clothes,       !- Name
  {0cf923e6-152e-48de-bb18-e1edfa302441}, !- Schedule Type Limits Name
  ,                                       !- Interpolate to Timestep
  24,                                     !- Hour 1
  0,                                      !- Minute 1
  0.5;                                    !- Value Until Time 1

OS:ScheduleTypeLimits,
  {0cf923e6-152e-48de-bb18-e1edfa302441}, !- Handle
  ClothingInsulation,                     !- Name
  0,                                      !- Lower Limit Value
  ,                                       !- Upper Limit Value
  Continuous,                             !- Numeric Type
  ClothingInsulation;                     !- Unit Type

OS:Schedule:Ruleset,
  {1103f09d-d498-4e04-97a4-f8d6f3b06d55}, !- Handle
  Air Velocity Schedule,                  !- Name
  {aa6bb015-ef1e-45be-8043-331b5b347286}, !- Schedule Type Limits Name
  {602932c5-2bdd-4de7-9b91-f09ba0e0286f}; !- Default Day Schedule Name

OS:Schedule:Day,
  {602932c5-2bdd-4de7-9b91-f09ba0e0286f}, !- Handle
  Air Velocity Schedule Default,          !- Name
  {aa6bb015-ef1e-45be-8043-331b5b347286}, !- Schedule Type Limits Name
  ,                                       !- Interpolate to Timestep
  24,                                     !- Hour 1
  0,                                      !- Minute 1
  0.2;                                    !- Value Until Time 1

OS:ScheduleTypeLimits,
  {aa6bb015-ef1e-45be-8043-331b5b347286}, !- Handle
  Velocity,                               !- Name
  0,                                      !- Lower Limit Value
  ,                                       !- Upper Limit Value
  Continuous,                             !- Numeric Type
  Velocity;                               !- Unit Type

OS:Schedule:Ruleset,
  {617f0e94-e9c3-4d10-a69a-6b0db9aa4d28}, !- Handle
  Work Efficiency Schedule,               !- Name
  {5e2c8bf0-afe2-47ea-aeaf-34ec883da414}, !- Schedule Type Limits Name
  {ccaab658-293d-4d0d-9b9f-f029d3c97969}; !- Default Day Schedule Name

OS:Schedule:Day,
  {ccaab658-293d-4d0d-9b9f-f029d3c97969}, !- Handle
  Work Efficiency Schedule Default,       !- Name
  {5e2c8bf0-afe2-47ea-aeaf-34ec883da414}, !- Schedule Type Limits Name
  ,                                       !- Interpolate to Timestep
  24,                                     !- Hour 1
  0,                                      !- Minute 1
  0;                                      !- Value Until Time 1

OS:ScheduleTypeLimits,
  {5e2c8bf0-afe2-47ea-aeaf-34ec883da414}, !- Handle
  Fractional,                             !- Name
  0,                                      !- Lower Limit Value
  1,                                      !- Upper Limit Value
  Continuous;                             !- Numeric Type

OS:Lights:Definition,
  {2f8058b1-da58-4274-a7cc-30aa610e3f75}, !- Handle
  FullServiceRestaurant Dining Lights Definition, !- Name
  Watts/Area,                             !- Design Level Calculation Method
  ,                                       !- Lighting Level {W}
  9.57988027087165,                       !- Watts per Space Floor Area {W/m2}
  ,                                       !- Watts per Person {W/person}
  0.7,                                    !- Fraction Radiant
  0.2,                                    !- Fraction Visible
  0;                                      !- Return Air Fraction

OS:AdditionalProperties,
  {1526a25b-4ef1-410d-a5f5-fa0fdda5865c}, !- Handle
  {2f8058b1-da58-4274-a7cc-30aa610e3f75}, !- Object Name
  lpd_fraction_linear_fluorescent,        !- Feature Name 1
  Double,                                 !- Feature Data Type 1
  1;                                      !- Feature Value 1

OS:ElectricEquipment:Definition,
  {49f42d54-553d-436d-9897-7dada1d16c76}, !- Handle
  FullServiceRestaurant Dining Elec Equip Definition, !- Name
  Watts/Area,                             !- Design Level Calculation Method
  ,                                       !- Design Level {W}
  64.927907633593,                        !- Watts per Space Floor Area {W/m2}
  ,                                       !- Watts per Person {W/person}
  0.25,                                   !- Fraction Latent
  0.3,                                    !- Fraction Radiant
  0;                                      !- Fraction Lost

OS:DesignSpecification:OutdoorAir,
  {8f58ca97-334c-4bc6-8d0a-70e7b5ce0644}, !- Handle
  FullServiceRestaurant Dining Ventilation, !- Name
  Sum,                                    !- Outdoor Air Method
  0.003539605824,                         !- Outdoor Air Flow per Person {m3/s-person}
  0.0009144,                              !- Outdoor Air Flow per Floor Area {m3/s-m2}
  ,                                       !- Outdoor Air Flow Rate {m3/s}
  ,                                       !- Outdoor Air Flow Air Changes per Hour {1/hr}
  ;                                       !- Outdoor Air Flow Rate Fraction Schedule Name

OS:DefaultScheduleSet,
  {e52435aa-2deb-4408-8a3a-281436693cff}, !- Handle
  FullServiceRestaurant Dining Schedule Set, !- Name
  ,                                       !- Hours of Operation Schedule Name
  {f3c7a8f2-cada-4a04-a506-9763009154aa}, !- Number of People Schedule Name
  {ed0a2dc0-c117-4f92-a1f6-fd85dc8821bc}, !- People Activity Level Schedule Name
  {bd57ec60-0e0e-4e8b-ba21-bba40fda64cb}, !- Lighting Schedule Name
  {5fc10d52-98d3-4ba7-b749-c8b50099b5fa}, !- Electric Equipment Schedule Name
  ,                                       !- Gas Equipment Schedule Name
  ,                                       !- Hot Water Equipment Schedule Name
  {5209c415-9845-4573-9453-ef127092e1a8}, !- Infiltration Schedule Name
  ,                                       !- Steam Equipment Schedule Name
  ;                                       !- Other Equipment Schedule Name

OS:Schedule:Ruleset,
  {f3c7a8f2-cada-4a04-a506-9763009154aa}, !- Handle
  RestaurantSitDown BLDG_OCC_SCH,         !- Name
  {5e2c8bf0-afe2-47ea-aeaf-34ec883da414}, !- Schedule Type Limits Name
  {9f74233a-c5ac-4496-be3e-fefaae928a95}, !- Default Day Schedule Name
  {6fefc57d-f44f-463a-90fa-0c0756627d34}, !- Summer Design Day Schedule Name
  {1ffc8ca6-53fc-491e-a5c2-4a7f029c7b69}; !- Winter Design Day Schedule Name

OS:Schedule:Day,
  {9f74233a-c5ac-4496-be3e-fefaae928a95}, !- Handle
  RestaurantSitDown BLDG_OCC_SCH Default, !- Name
  {5e2c8bf0-afe2-47ea-aeaf-34ec883da414}, !- Schedule Type Limits Name
  ,                                       !- Interpolate to Timestep
  1,                                      !- Hour 1
  0,                                      !- Minute 1
  0.05,                                   !- Value Until Time 1
  6,                                      !- Hour 2
  0,                                      !- Minute 2
  0,                                      !- Value Until Time 2
  7,                                      !- Hour 3
  0,                                      !- Minute 3
  0.05,                                   !- Value Until Time 3
  9,                                      !- Hour 4
  0,                                      !- Minute 4
  0.5,                                    !- Value Until Time 4
  11,                                     !- Hour 5
  0,                                      !- Minute 5
  0.2,                                    !- Value Until Time 5
  12,                                     !- Hour 6
  0,                                      !- Minute 6
  0.3,                                    !- Value Until Time 6
  14,                                     !- Hour 7
  0,                                      !- Minute 7
  0.5,                                    !- Value Until Time 7
  15,                                     !- Hour 8
  0,                                      !- Minute 8
  0.3,                                    !- Value Until Time 8
  16,                                     !- Hour 9
  0,                                      !- Minute 9
  0.2,                                    !- Value Until Time 9
  17,                                     !- Hour 10
  0,                                      !- Minute 10
  0.25,                                   !- Value Until Time 10
  18,                                     !- Hour 11
  0,                                      !- Minute 11
  0.35,                                   !- Value Until Time 11
  19,                                     !- Hour 12
  0,                                      !- Minute 12
  0.55,                                   !- Value Until Time 12
  20,                                     !- Hour 13
  0,                                      !- Minute 13
  0.65,                                   !- Value Until Time 13
  21,                                     !- Hour 14
  0,                                      !- Minute 14
  0.7,                                    !- Value Until Time 14
  22,                                     !- Hour 15
  0,                                      !- Minute 15
  0.35,                                   !- Value Until Time 15
  24,                                     !- Hour 16
  0,                                      !- Minute 16
  0.2;                                    !- Value Until Time 16

OS:Schedule:Rule,
  {f7fa0412-e1e8-4b7a-8e64-a5a8b5a10b70}, !- Handle
  Schedule Rule 2,                        !- Name
  {f3c7a8f2-cada-4a04-a506-9763009154aa}, !- Schedule Ruleset Name
  1,                                      !- Rule Order
  {38d69dd9-5f34-4789-833f-ba2b87cdec84}, !- Day Schedule Name
  ,                                       !- Apply Sunday
  ,                                       !- Apply Monday
  ,                                       !- Apply Tuesday
  ,                                       !- Apply Wednesday
  ,                                       !- Apply Thursday
  ,                                       !- Apply Friday
  Yes,                                    !- Apply Saturday
  DateRange,                              !- Date Specification Type
  1,                                      !- Start Month
  1,                                      !- Start Day
  12,                                     !- End Month
  31;                                     !- End Day

OS:Schedule:Day,
  {38d69dd9-5f34-4789-833f-ba2b87cdec84}, !- Handle
  RestaurantSitDown BLDG_OCC_SCH Sat Day, !- Name
  {5e2c8bf0-afe2-47ea-aeaf-34ec883da414}, !- Schedule Type Limits Name
  ,                                       !- Interpolate to Timestep
  1,                                      !- Hour 1
  0,                                      !- Minute 1
  0.05,                                   !- Value Until Time 1
  6,                                      !- Hour 2
  0,                                      !- Minute 2
  0,                                      !- Value Until Time 2
  7,                                      !- Hour 3
  0,                                      !- Minute 3
  0.05,                                   !- Value Until Time 3
  9,                                      !- Hour 4
  0,                                      !- Minute 4
  0.5,                                    !- Value Until Time 4
  10,                                     !- Hour 5
  0,                                      !- Minute 5
  0.4,                                    !- Value Until Time 5
  11,                                     !- Hour 6
  0,                                      !- Minute 6
  0.2,                                    !- Value Until Time 6
  12,                                     !- Hour 7
  0,                                      !- Minute 7
  0.45,                                   !- Value Until Time 7
  14,                                     !- Hour 8
  0,                                      !- Minute 8
  0.5,                                    !- Value Until Time 8
  15,                                     !- Hour 9
  0,                                      !- Minute 9
  0.35,                                   !- Value Until Time 9
  18,                                     !- Hour 10
  0,                                      !- Minute 10
  0.3,                                    !- Value Until Time 10
  19,                                     !- Hour 11
  0,                                      !- Minute 11
  0.7,                                    !- Value Until Time 11
  20,                                     !- Hour 12
  0,                                      !- Minute 12
  0.9,                                    !- Value Until Time 12
  21,                                     !- Hour 13
  0,                                      !- Minute 13
  0.7,                                    !- Value Until Time 13
  22,                                     !- Hour 14
  0,                                      !- Minute 14
  0.65,                                   !- Value Until Time 14
  23,                                     !- Hour 15
  0,                                      !- Minute 15
  0.55,                                   !- Value Until Time 15
  24,                                     !- Hour 16
  0,                                      !- Minute 16
  0.35;                                   !- Value Until Time 16

OS:Schedule:Day,
  {6fefc57d-f44f-463a-90fa-0c0756627d34}, !- Handle
  RestaurantSitDown BLDG_OCC_SCH Summer Design Day, !- Name
  {5e2c8bf0-afe2-47ea-aeaf-34ec883da414}, !- Schedule Type Limits Name
  ,                                       !- Interpolate to Timestep
  24,                                     !- Hour 1
  0,                                      !- Minute 1
  1;                                      !- Value Until Time 1

OS:Schedule:Rule,
  {75392268-059f-4b23-87c8-9d6b0995f51d}, !- Handle
  Schedule Rule 3,                        !- Name
  {f3c7a8f2-cada-4a04-a506-9763009154aa}, !- Schedule Ruleset Name
  0,                                      !- Rule Order
  {a731e0ed-4441-4d02-84a6-beab0ab1037b}, !- Day Schedule Name
  ,                                       !- Apply Sunday
  Yes,                                    !- Apply Monday
  Yes,                                    !- Apply Tuesday
  Yes,                                    !- Apply Wednesday
  Yes,                                    !- Apply Thursday