
OS:Version,
  {381cf22d-9f59-49c7-afef-6efa38c41c03}, !- Handle
  3.5.1;                                  !- Version Identifier

OS:Facility,
  {cee08a6d-b36b-45c4-8e64-34a4b6484790}; !- Handle

OS:Site,
  {30091e8d-517c-4f21-9f63-fcd81e5357d5}, !- Handle
  Buffalo Niagara Intl Ap_NY_USA,         !- Name
  42.8180322642434,                       !- Latitude {deg}
  -78.850630729414,                       !- Longitude {deg}
  -5,                                     !- Time Zone {hr}
  215,                                    !- Elevation {m}
  City;                                   !- Terrain

OS:SimulationControl,
  {ef41c351-0f1d-4780-af03-04466853f142}, !- Handle
  ,                                       !- Do Zone Sizing Calculation
  ,                                       !- Do System Sizing Calculation
  ,                                       !- Do Plant Sizing Calculation
  No,                                     !- Run Simulation for Sizing Periods
  Yes,                                    !- Run Simulation for Weather File Run Periods
  ,                                       !- Loads Convergence Tolerance Value {W}
  ,                                       !- Temperature Convergence Tolerance Value {deltaC}
  ,                                       !- Solar Distribution
  ,                                       !- Maximum Number of Warmup Days
  ,                                       !- Minimum Number of Warmup Days
  No,                                     !- Do HVAC Sizing Simulation for Sizing Periods
  1;                                      !- Maximum Number of HVAC Sizing Simulation Passes

OS:Sizing:Parameters,
  {d7767a46-c821-4443-9cd8-a9060ab0023b}, !- Handle
  1.25,                                   !- Heating Sizing Factor
  1.15;                                   !- Cooling Sizing Factor

OS:Timestep,
  {bdba0709-c7e2-4cb4-9254-53ff1df6d59f}, !- Handle
  1;                                      !- Number of Timesteps per Hour

OS:ShadowCalculation,
  {4cab2bf4-49ad-4b23-9495-a80ba9cc6b98}, !- Handle
  PolygonClipping,                        !- Shading Calculation Method
  ,                                       !- Shading Calculation Update Frequency Method
  20,                                     !- Shading Calculation Update Frequency
  15000,                                  !- Maximum Figures in Shadow Overlap Calculations
  ,                                       !- Polygon Clipping Algorithm
  512,                                    !- Pixel Counting Resolution
  ,                                       !- Sky Diffuse Modeling Algorithm
  No,                                     !- Output External Shading Calculation Results
  No,                                     !- Disable Self-Shading Within Shading Zone Groups
  No;                                     !- Disable Self-Shading From Shading Zone Groups to Other Zones

OS:HeatBalanceAlgorithm,
  {5f4ab552-f259-4a50-91ec-c7d7d3849780}, !- Handle
  ConductionTransferFunction,             !- Algorithm
  200;                                    !- Surface Temperature Upper Limit {C}

OS:RunPeriod,
  {f481b17a-cc33-4bbc-b962-3d89cb029f7f}, !- Handle
  Run Period 1,                           !- Name
  1,                                      !- Begin Month
  1,                                      !- Begin Day of Month
  12,                                     !- End Month
  31,                                     !- End Day of Month
  ,                                       !- Use Weather File Holidays and Special Days
  ,                                       !- Use Weather File Daylight Saving Period
  ,                                       !- Apply Weekend Holiday Rule
  ,                                       !- Use Weather File Rain Indicators
  ,                                       !- Use Weather File Snow Indicators
  ;                                       !- Number of Times Runperiod to be Repeated

OS:LifeCycleCost:Parameters,
  {095caf7f-5a2c-46e2-bd54-a9efb7fc4816}, !- Handle
  ,                                       !- Analysis Type
  ,                                       !- Discounting Convention
  ,                                       !- Inflation Approach
  ,                                       !- Real Discount Rate
  ,                                       !- Nominal Discount Rate
  ,                                       !- Inflation
  ,                                       !- Base Date Month
  ,                                       !- Base Date Year
  ,                                       !- Service Date Month
  ,                                       !- Service Date Year
  ;                                       !- Length of Study Period in Years

OS:YearDescription,
  {af27eba6-518b-4acc-8005-71cb37b1c0f0}, !- Handle
  2017,                                   !- Calendar Year
  ,                                       !- Day of Week for Start Day
  ;                                       !- Is Leap Year

OS:WeatherFile,
  {5780c3c4-f78a-4680-b15a-94a890e146dd}, !- Handle
  Buffalo Niagara Intl Ap,                !- City
  NY,                                     !- State Province Region
  USA,                                    !- Country
  TMY3,                                   !- Data Source
  725280,                                 !- WMO Number
  42.93,                                  !- Latitude {deg}
  -78.73,                                 !- Longitude {deg}
  -5,                                     !- Time Zone {hr}
  215,                                    !- Elevation {m}
  C:/Users/tanus/urbanopt-des/weather/USA_NY_Buffalo-Greater.Buffalo.Intl.AP.725280_TMY3.epw, !- Url
  ;                                       !- Checksum

OS:Site:WaterMainsTemperature,
  {e52c3bd6-23fb-4975-a0a2-c40164cd1ff7}, !- Handle
  Correlation,                            !- Calculation Method
  ,                                       !- Temperature Schedule Name
  8.96666666666667,                       !- Annual Average Outdoor Air Temperature {C}
  26.2;                                   !- Maximum Difference In Monthly Average Outdoor Air Temperatures {deltaC}

OS:SizingPeriod:DesignDay,
  {359c24af-ad7a-48aa-9234-4d1ab4f3f1f1}, !- Handle
  Buffalo Niagara Intl Ap Ann Clg .4% Condns DB=>MWB 1, !- Name
  30.3,                                   !- Maximum Dry-Bulb Temperature {C}
  9.3,                                    !- Daily Dry-Bulb Temperature Range {deltaC}
  98769,                                  !- Barometric Pressure {Pa}
  5.7,                                    !- Wind Speed {m/s}
  240,                                    !- Wind Direction {deg}
  ,                                       !- Sky Clearness
  No,                                     !- Rain Indicator
  No,                                     !- Snow Indicator
  21,                                     !- Day of Month
  7,                                      !- Month
  SummerDesignDay,                        !- Day Type
  No,                                     !- Daylight Saving Time Indicator
  Wetbulb,                                !- Humidity Condition Type
  ,                                       !- Humidity Condition Day Schedule Name
  21.8,                                   !- Wetbulb or DewPoint at Maximum Dry-Bulb {C}
  ,                                       !- Humidity Ratio at Maximum Dry-Bulb {kgWater/kgDryAir}
  ,                                       !- Enthalpy at Maximum Dry-Bulb {J/kg}
  DefaultMultipliers,                     !- Dry-Bulb Temperature Range Modifier Type
  ,                                       !- Dry-Bulb Temperature Range Modifier Day Schedule Name
  ASHRAETau,                              !- Solar Model Indicator
  ,                                       !- Beam Solar Day Schedule Name
  ,                                       !- Diffuse Solar Day Schedule Name
  0.462,                                  !- ASHRAE Clear Sky Optical Depth for Beam Irradiance {dimensionless}
  2.001;                                  !- ASHRAE Clear Sky Optical Depth for Diffuse Irradiance {dimensionless}

OS:SizingPeriod:DesignDay,
  {3ed46b56-c6cf-49bd-b9ea-45077bebc054}, !- Handle
  Buffalo Niagara Intl Ap Ann Clg .4% Condns WB=>MDB 1, !- Name
  27.8,                                   !- Maximum Dry-Bulb Temperature {C}
  9.3,                                    !- Daily Dry-Bulb Temperature Range {deltaC}
  98769,                                  !- Barometric Pressure {Pa}
  5.7,                                    !- Wind Speed {m/s}
  240,                                    !- Wind Direction {deg}
  ,                                       !- Sky Clearness
  No,                                     !- Rain Indicator
  No,                                     !- Snow Indicator
  21,                                     !- Day of Month
  7,                                      !- Month
  SummerDesignDay,                        !- Day Type
  No,                                     !- Daylight Saving Time Indicator
  Wetbulb,                                !- Humidity Condition Type
  ,                                       !- Humidity Condition Day Schedule Name
  23.8,                                   !- Wetbulb or DewPoint at Maximum Dry-Bulb {C}
  ,                                       !- Humidity Ratio at Maximum Dry-Bulb {kgWater/kgDryAir}
  ,                                       !- Enthalpy at Maximum Dry-Bulb {J/kg}
  DefaultMultipliers,                     !- Dry-Bulb Temperature Range Modifier Type
  ,                                       !- Dry-Bulb Temperature Range Modifier Day Schedule Name
  ASHRAETau,                              !- Solar Model Indicator
  ,                                       !- Beam Solar Day Schedule Name
  ,                                       !- Diffuse Solar Day Schedule Name
  0.462,                                  !- ASHRAE Clear Sky Optical Depth for Beam Irradiance {dimensionless}
  2.001;                                  !- ASHRAE Clear Sky Optical Depth for Diffuse Irradiance {dimensionless}

OS:SizingPeriod:DesignDay,
  {7de67d41-f9b9-4c86-8f32-8ecefc443221}, !- Handle
  Buffalo Niagara Intl Ap Ann Htg 99.6% Condns DB 1, !- Name
  -16.3,                                  !- Maximum Dry-Bulb Temperature {C}
  0,                                      !- Daily Dry-Bulb Temperature Range {deltaC}
  98769,                                  !- Barometric Pressure {Pa}
  5.1,                                    !- Wind Speed {m/s}
  270,                                    !- Wind Direction {deg}
  0,                                      !- Sky Clearness
  No,                                     !- Rain Indicator
  No,                                     !- Snow Indicator
  21,                                     !- Day of Month
  1,                                      !- Month
  WinterDesignDay,                        !- Day Type
  No,                                     !- Daylight Saving Time Indicator
  Wetbulb,                                !- Humidity Condition Type
  ,                                       !- Humidity Condition Day Schedule Name
  -16.3,                                  !- Wetbulb or DewPoint at Maximum Dry-Bulb {C}
  ,                                       !- Humidity Ratio at Maximum Dry-Bulb {kgWater/kgDryAir}
  ,                                       !- Enthalpy at Maximum Dry-Bulb {J/kg}
  DefaultMultipliers,                     !- Dry-Bulb Temperature Range Modifier Type
  ,                                       !- Dry-Bulb Temperature Range Modifier Day Schedule Name
  ASHRAEClearSky;                         !- Solar Model Indicator

OS:ClimateZones,
  {c55760be-dad6-48d8-9050-df54ae2f329e}, !- Handle
  ASHRAE,                                 !- Climate Zone Institution Name 1
  ANSI/ASHRAE Standard 169,               !- Climate Zone Document Name 1
  2006,                                   !- Climate Zone Document Year 1
  6A;                                     !- Climate Zone Value 1

OS:Rendering:Color,
  {6936e42a-51e4-47c1-b9df-138a2cf8ee1a}, !- Handle
  FullServiceRestaurant Kitchen,          !- Name
  78,                                     !- Rendering Red Value
  222,                                    !- Rendering Green Value
  133;                                    !- Rendering Blue Value

OS:Rendering:Color,
  {6bf2d2eb-06c1-4beb-8346-e4c0fbe58b18}, !- Handle
  FullServiceRestaurant Dining,           !- Name
  31,                                     !- Rendering Red Value
  169,                                    !- Rendering Green Value
  34;                                     !- Rendering Blue Value

OS:RunPeriodControl:DaylightSavingTime,
  {b98fcbf5-5c5c-4b9d-8d1b-6f21f6b4e670}, !- Handle
  2nd Sunday in March,                    !- Start Date
  1st Sunday in November;                 !- End Date

OS:People:Definition,
  {29982869-8e91-44f7-b7a3-ca96dc331856}, !- Handle
  FullServiceRestaurant Dining People Definition, !- Name
  People/Area,                            !- Number of People Calculation Method
  ,                                       !- Number of People {people}
  0.753473729169681,                      !- People per Space Floor Area {person/m2}
  ,                                       !- Space Floor Area per Person {m2/person}
  0.3,                                    !- Fraction Radiant
  ,                                       !- Sensible Heat Fraction
  ,                                       !- Carbon Dioxide Generation Rate {m3/s-W}
  Yes,                                    !- Enable ASHRAE 55 Comfort Warnings
  ZoneAveraged,                           !- Mean Radiant Temperature Calculation Type
  Fanger;                                 !- Thermal Comfort Model Type 1

OS:Schedule:Ruleset,
  {210bd623-cae0-4e2c-94dc-41b623c5938b}, !- Handle
  Clothing Schedule,                      !- Name
  {c56b2faa-5483-49d0-92c9-c7310f8162b3}, !- Schedule Type Limits Name
  {48ce8744-026f-4bc0-99a9-4b297bfd4e77}; !- Default Day Schedule Name

OS:Schedule:Day,
  {48ce8744-026f-4bc0-99a9-4b297bfd4e77}, !- Handle
  Clothing Schedule Default Winter Clothes, !- Name
  {c56b2faa-5483-49d0-92c9-c7310f8162b3}, !- Schedule Type Limits Name
  ,                                       !- Interpolate to Timestep
  24,                                     !- Hour 1
  0,                                      !- Minute 1
  1;                                      !- Value Until Time 1

OS:Schedule:Rule,
  {917f6577-bd97-4329-b603-d3d4260dd91f}, !- Handle
  Schedule Rule 1,                        !- Name
  {210bd623-cae0-4e2c-94dc-41b623c5938b}, !- Schedule Ruleset Name
  0,                                      !- Rule Order
  {e0e171b5-19a0-48ec-ab1f-ed819ef434b6}, !- Day Schedule Name
  ,                                       !- Apply Sunday
  ,                                       !- Apply Monday
  ,                                       !- Apply Tuesday
  ,                                       !- Apply Wednesday
  ,                                       !- Apply Thursday
  ,                                       !- Apply Friday
  ,                                       !- Apply Saturday
  DateRange,                              !- Date Specification Type
  5,                                      !- Start Month
  1,                                      !- Start Day
  9,                                      !- End Month
  30;                                     !- End Day

OS:Schedule:Day,
  {e0e171b5-19a0-48ec-ab1f-ed819ef434b6}, !- Handle
  Clothing Schedule Summer Clothes,       !- Name
  {c56b2faa-5483-49d0-92c9-c7310f8162b3}, !- Schedule Type Limits Name
  ,                                       !- Interpolate to Timestep
  24,                                     !- Hour 1
  0,                                      !- Minute 1
  0.5;                                    !- Value Until Time 1

OS:ScheduleTypeLimits,
  {c56b2faa-5483-49d0-92c9-c7310f8162b3}, !- Handle
  ClothingInsulation,                     !- Name
  0,                                      !- Lower Limit Value
  ,                                       !- Upper Limit Value
  Continuous,                             !- Numeric Type
  ClothingInsulation;                     !- Unit Type

OS:Schedule:Ruleset,
  {0bc8d3de-63d6-4c6a-a6b9-95f4fcc782fd}, !- Handle
  Air Velocity Schedule,                  !- Name
  {1ab0673c-6d51-4dd7-93cc-626a2ce1fb95}, !- Schedule Type Limits Name
  {60ebddb7-1775-46b2-b90c-2f3572143f91}; !- Default Day Schedule Name

OS:Schedule:Day,
  {60ebddb7-1775-46b2-b90c-2f3572143f91}, !- Handle
  Air Velocity Schedule Default,          !- Name
  {1ab0673c-6d51-4dd7-93cc-626a2ce1fb95}, !- Schedule Type Limits Name
  ,                                       !- Interpolate to Timestep
  24,                                     !- Hour 1
  0,                                      !- Minute 1
  0.2;                                    !- Value Until Time 1

OS:ScheduleTypeLimits,
  {1ab0673c-6d51-4dd7-93cc-626a2ce1fb95}, !- Handle
  Velocity,                               !- Name
  0,                                      !- Lower Limit Value
  ,                                       !- Upper Limit Value
  Continuous,                             !- Numeric Type
  Velocity;                               !- Unit Type

OS:Schedule:Ruleset,
  {24827483-c45b-4a6c-bab6-93114a22cf6e}, !- Handle
  Work Efficiency Schedule,               !- Name
  {e29f6829-dd88-4719-8484-1fee072438d3}, !- Schedule Type Limits Name
  {ec6bbe46-6dca-4411-a814-97d9c4b8d4e5}; !- Default Day Schedule Name

OS:Schedule:Day,
  {ec6bbe46-6dca-4411-a814-97d9c4b8d4e5}, !- Handle
  Work Efficiency Schedule Default,       !- Name
  {e29f6829-dd88-4719-8484-1fee072438d3}, !- Schedule Type Limits Name
  ,                                       !- Interpolate to Timestep
  24,                                     !- Hour 1
  0,                                      !- Minute 1
  0;                                      !- Value Until Time 1

OS:ScheduleTypeLimits,
  {e29f6829-dd88-4719-8484-1fee072438d3}, !- Handle
  Fractional,                             !- Name
  0,                                      !- Lower Limit Value
  1,                                      !- Upper Limit Value
  Continuous;                             !- Numeric Type

OS:Lights:Definition,
  {6c5509c1-8822-4837-abe8-b862e4f386cd}, !- Handle
  FullServiceRestaurant Dining Lights Definition, !- Name
  Watts/Area,                             !- Design Level Calculation Method
  ,                                       !- Lighting Level {W}
  9.57988027087165,                       !- Watts per Space Floor Area {W/m2}
  ,                                       !- Watts per Person {W/person}
  0.7,                                    !- Fraction Radiant
  0.2,                                    !- Fraction Visible
  0;                                      !- Return Air Fraction

OS:AdditionalProperties,
  {f9b3014b-f665-4ecf-a1cc-b62a1a87fa9d}, !- Handle
  {6c5509c1-8822-4837-abe8-b862e4f386cd}, !- Object Name
  lpd_fraction_linear_fluorescent,        !- Feature Name 1
  Double,                                 !- Feature Data Type 1
  1;                                      !- Feature Value 1

OS:ElectricEquipment:Definition,
  {7f223e2e-3685-41fe-9c33-6e0ccadbc18d}, !- Handle
  FullServiceRestaurant Dining Elec Equip Definition, !- Name
  Watts/Area,                             !- Design Level Calculation Method
  ,                                       !- Design Level {W}
  64.927907633593,                        !- Watts per Space Floor Area {W/m2}
  ,                                       !- Watts per Person {W/person}
  0.25,                                   !- Fraction Latent
  0.3,                                    !- Fraction Radiant
  0;                                      !- Fraction Lost

OS:DesignSpecification:OutdoorAir,
  {14cf519a-b2e4-4e47-84ee-ba98f16a38a0}, !- Handle
  FullServiceRestaurant Dining Ventilation, !- Name
  Sum,                                    !- Outdoor Air Method
  0.003539605824,                         !- Outdoor Air Flow per Person {m3/s-person}
  0.0009144,                              !- Outdoor Air Flow per Floor Area {m3/s-m2}
  ,                                       !- Outdoor Air Flow Rate {m3/s}
  ,                                       !- Outdoor Air Flow Air Changes per Hour {1/hr}
  ;                                       !- Outdoor Air Flow Rate Fraction Schedule Name

OS:DefaultScheduleSet,
  {6773938a-6b06-4613-bda9-f49011193f1c}, !- Handle
  FullServiceRestaurant Dining Schedule Set, !- Name
  ,                                       !- Hours of Operation Schedule Name
  {db1b51f6-8412-45ba-ab15-489b957b8076}, !- Number of People Schedule Name
  {d014341f-1d22-4e06-b8d9-50bf61b805de}, !- People Activity Level Schedule Name
  {04c5d9b9-992d-4cf8-87ff-6cc8e9ed6e54}, !- Lighting Schedule Name
  {6bbae41a-7246-40a7-ad7b-890875d76aa7}, !- Electric Equipment Schedule Name
  ,                                       !- Gas Equipment Schedule Name
  ,                                       !- Hot Water Equipment Schedule Name
  {d3743d84-5ed4-4f67-9da1-662696c34d70}, !- Infiltration Schedule Name
  ,                                       !- Steam Equipment Schedule Name
  ;                                       !- Other Equipment Schedule Name

OS:Schedule:Ruleset,
  {db1b51f6-8412-45ba-ab15-489b957b8076}, !- Handle
  RestaurantSitDown BLDG_OCC_SCH,         !- Name
  {e29f6829-dd88-4719-8484-1fee072438d3}, !- Schedule Type Limits Name
  {e1b018b9-a3eb-4217-91dd-b8d2aaae121e}, !- Default Day Schedule Name
  {251b09aa-03e6-4361-8d22-6ea497673871}, !- Summer Design Day Schedule Name
  {124942c9-65ef-4d1f-b93e-143417de56ea}; !- Winter Design Day Schedule Name

OS:Schedule:Day,
  {e1b018b9-a3eb-4217-91dd-b8d2aaae121e}, !- Handle
  RestaurantSitDown BLDG_OCC_SCH Default, !- Name
  {e29f6829-dd88-4719-8484-1fee072438d3}, !- Schedule Type Limits Name
  ,                                       !- Interpolate to Timestep
  1,                                      !- Hour 1
  0,                                      !- Minute 1
  0.05,                                   !- Value Until Time 1
  6,                                      !- Hour 2
  0,                                      !- Minute 2
  0,                                      !- Value Until Time 2
  7,                                      !- Hour 3
  0,                                      !- Minute 3
  0.05,                                   !- Value Until Time 3
  9,                                      !- Hour 4
  0,                                      !- Minute 4
  0.5,                                    !- Value Until Time 4
  11,                                     !- Hour 5
  0,                                      !- Minute 5
  0.2,                                    !- Value Until Time 5
  12,                                     !- Hour 6
  0,                                      !- Minute 6
  0.3,                                    !- Value Until Time 6
  14,                                     !- Hour 7
  0,                                      !- Minute 7
  0.5,                                    !- Value Until Time 7
  15,                                     !- Hour 8
  0,                                      !- Minute 8
  0.3,                                    !- Value Until Time 8
  16,                                     !- Hour 9
  0,                                      !- Minute 9
  0.2,                                    !- Value Until Time 9
  17,                                     !- Hour 10
  0,                                      !- Minute 10
  0.25,                                   !- Value Until Time 10
  18,                                     !- Hour 11
  0,                                      !- Minute 11
  0.35,                                   !- Value Until Time 11
  19,                                     !- Hour 12
  0,                                      !- Minute 12
  0.55,                                   !- Value Until Time 12
  20,                                     !- Hour 13
  0,                                      !- Minute 13
  0.65,                                   !- Value Until Time 13
  21,                                     !- Hour 14
  0,                                      !- Minute 14
  0.7,                                    !- Value Until Time 14
  22,                                     !- Hour 15
  0,                                      !- Minute 15
  0.35,                                   !- Value Until Time 15
  24,                                     !- Hour 16
  0,                                      !- Minute 16
  0.2;                                    !- Value Until Time 16

OS:Schedule:Rule,
  {ce95aae4-e69f-486c-aeec-eebaf69b548f}, !- Handle
  Schedule Rule 2,                        !- Name
  {db1b51f6-8412-45ba-ab15-489b957b8076}, !- Schedule Ruleset Name
  1,                                      !- Rule Order
  {bf339143-208a-4e6c-b0c7-7355b4526d05}, !- Day Schedule Name
  ,                                       !- Apply Sunday
  ,                                       !- Apply Monday
  ,                                       !- Apply Tuesday
  ,                                       !- Apply Wednesday
  ,                                       !- Apply Thursday
  ,                                       !- Apply Friday
  Yes,                                    !- Apply Saturday
  DateRange,                              !- Date Specification Type
  1,                                      !- Start Month
  1,                                      !- Start Day
  12,                                     !- End Month
  31;                                     !- End Day

OS:Schedule:Day,
  {bf339143-208a-4e6c-b0c7-7355b4526d05}, !- Handle
  RestaurantSitDown BLDG_OCC_SCH Sat Day, !- Name
  {e29f6829-dd88-4719-8484-1fee072438d3}, !- Schedule Type Limits Name
  ,                                       !- Interpolate to Timestep
  1,                                      !- Hour 1
  0,                                      !- Minute 1
  0.05,                                   !- Value Until Time 1
  6,                                      !- Hour 2
  0,                                      !- Minute 2
  0,                                      !- Value Until Time 2
  7,                                      !- Hour 3
  0,                                      !- Minute 3
  0.05,                                   !- Value Until Time 3
  9,                                      !- Hour 4
  0,                                      !- Minute 4
  0.5,                                    !- Value Until Time 4
  10,                                     !- Hour 5
  0,                                      !- Minute 5
  0.4,                                    !- Value Until Time 5
  11,                                     !- Hour 6
  0,                                      !- Minute 6
  0.2,                                    !- Value Until Time 6
  12,                                     !- Hour 7
  0,                                      !- Minute 7
  0.45,                                   !- Value Until Time 7
  14,                                     !- Hour 8
  0,                                      !- Minute 8
  0.5,                                    !- Value Until Time 8
  15,                                     !- Hour 9
  0,                                      !- Minute 9
  0.35,                                   !- Value Until Time 9
  18,                                     !- Hour 10
  0,                                      !- Minute 10
  0.3,                                    !- Value Until Time 10
  19,                                     !- Hour 11
  0,                                      !- Minute 11
  0.7,                                    !- Value Until Time 11
  20,                                     !- Hour 12
  0,                                      !- Minute 12
  0.9,                                    !- Value Until Time 12
  21,                                     !- Hour 13
  0,                                      !- Minute 13
  0.7,                                    !- Value Until Time 13
  22,                                     !- Hour 14
  0,                                      !- Minute 14
  0.65,                                   !- Value Until Time 14
  23,                                     !- Hour 15
  0,                                      !- Minute 15
  0.55,                                   !- Value Until Time 15
  24,                                     !- Hour 16
  0,                                      !- Minute 16
  0.35;                                   !- Value Until Time 16

OS:Schedule:Day,
  {251b09aa-03e6-4361-8d22-6ea497673871}, !- Handle
  RestaurantSitDown BLDG_OCC_SCH Summer Design Day, !- Name
  {e29f6829-dd88-4719-8484-1fee072438d3}, !- Schedule Type Limits Name
  ,                                       !- Interpolate to Timestep
  24,                                     !- Hour 1
  0,                                      !- Minute 1
  1;                                      !- Value Until Time 1

OS:Schedule:Rule,
  {b21f176c-9483-4ff0-9f69-3ce50457f548}, !- Handle
  Schedule Rule 3,                        !- Name
  {db1b51f6-8412-45ba-ab15-489b957b8076}, !- Schedule Ruleset Name
  0,                                      !- Rule Order
  {a1a9535e-972a-4b43-bcaa-407383b4b513}, !- Day Schedule Name
  ,                                       !- Apply Sunday
  Yes,                                    !- Apply Monday
  Yes,                                    !- Apply Tuesday
  Yes,                                    !- Apply Wednesday
  Yes,                                    !- Apply Thursday