
OS:Version,
  {65fd36d6-60d3-4c37-b6d0-af360706b20c}, !- Handle
  3.2.0;                                  !- Version Identifier

OS:Facility,
  {ca68db47-2ade-4fb4-84ec-0eddec487643}; !- Handle

OS:Site,
  {a665e298-7504-4e65-bdf3-930c13ffbb4e}, !- Handle
  Denver Intl Ap_CO_USA,                  !- Name
  39.806813147623,                        !- Latitude {deg}
  -104.780017733465,                      !- Longitude {deg}
  -7,                                     !- Time Zone {hr}
  497.7384,                               !- Elevation {m}
  City;                                   !- Terrain

OS:SimulationControl,
  {461b07b8-4f52-45e8-a8a1-4cdba127b6ec}, !- Handle
  ,                                       !- Do Zone Sizing Calculation
  ,                                       !- Do System Sizing Calculation
  ,                                       !- Do Plant Sizing Calculation
  No,                                     !- Run Simulation for Sizing Periods
  Yes,                                    !- Run Simulation for Weather File Run Periods
  ,                                       !- Loads Convergence Tolerance Value {W}
  ,                                       !- Temperature Convergence Tolerance Value {deltaC}
  ,                                       !- Solar Distribution
  ,                                       !- Maximum Number of Warmup Days
  ,                                       !- Minimum Number of Warmup Days
  Yes,                                    !- Do HVAC Sizing Simulation for Sizing Periods
  1;                                      !- Maximum Number of HVAC Sizing Simulation Passes

OS:Sizing:Parameters,
  {6b60cf72-9bd9-4bb3-8bd5-e89470de4dd2}, !- Handle
  1.25,                                   !- Heating Sizing Factor
  1.15;                                   !- Cooling Sizing Factor

OS:Timestep,
  {70d74fce-ff91-4556-aa6c-77313b617eba}, !- Handle
  1;                                      !- Number of Timesteps per Hour

OS:ShadowCalculation,
  {9ab0f1c7-9bbf-4034-94dd-fe1313a892da}, !- Handle
  PolygonClipping,                        !- Shading Calculation Method
  ,                                       !- Shading Calculation Update Frequency Method
  20,                                     !- Shading Calculation Update Frequency
  15000,                                  !- Maximum Figures in Shadow Overlap Calculations
  ,                                       !- Polygon Clipping Algorithm
  512,                                    !- Pixel Counting Resolution
  ,                                       !- Sky Diffuse Modeling Algorithm
  No,                                     !- Output External Shading Calculation Results
  No,                                     !- Disable Self-Shading Within Shading Zone Groups
  No;                                     !- Disable Self-Shading From Shading Zone Groups to Other Zones

OS:HeatBalanceAlgorithm,
  {94da35a8-20a8-4914-8ce3-778db45909a0}, !- Handle
  ConductionTransferFunction,             !- Algorithm
  200;                                    !- Surface Temperature Upper Limit {C}

OS:RunPeriod,
  {c48c39e6-7260-468b-a1f4-e0694dd28e0d}, !- Handle
  Run Period 1,                           !- Name
  1,                                      !- Begin Month
  1,                                      !- Begin Day of Month
  12,                                     !- End Month
  31,                                     !- End Day of Month
  ,                                       !- Use Weather File Holidays and Special Days
  ,                                       !- Use Weather File Daylight Saving Period
  ,                                       !- Apply Weekend Holiday Rule
  ,                                       !- Use Weather File Rain Indicators
  ,                                       !- Use Weather File Snow Indicators
  ;                                       !- Number of Times Runperiod to be Repeated

OS:LifeCycleCost:Parameters,
  {ad22df59-eb82-4801-843e-c7f20e5c81be}, !- Handle
  ,                                       !- Analysis Type
  ,                                       !- Discounting Convention
  ,                                       !- Inflation Approach
  ,                                       !- Real Discount Rate
  ,                                       !- Nominal Discount Rate
  ,                                       !- Inflation
  ,                                       !- Base Date Month
  ,                                       !- Base Date Year
  ,                                       !- Service Date Month
  ,                                       !- Service Date Year
  ;                                       !- Length of Study Period in Years

OS:YearDescription,
  {77ceff84-2b27-48f5-b310-e32a8258b1c1}, !- Handle
  2019,                                   !- Calendar Year
  ,                                       !- Day of Week for Start Day
  ;                                       !- Is Leap Year

OS:WeatherFile,
  {f92dd21f-ef49-4951-8153-c5cb140259b9}, !- Handle
  Denver Intl Ap,                         !- City
  CO,                                     !- State Province Region
  USA,                                    !- Country
  TMY3,                                   !- Data Source
  725650,                                 !- WMO Number
  39.83,                                  !- Latitude {deg}
  -104.65,                                !- Longitude {deg}
  -7,                                     !- Time Zone {hr}
  1650,                                   !- Elevation {m}
  C:/AUMC/ev/weather/USA_CO_Denver.Intl.AP.725650_TMY3.epw, !- Url
  ;                                       !- Checksum

OS:Site:WaterMainsTemperature,
  {c379f7fe-b4b8-480f-be90-57812d80cb62}, !- Handle
  Correlation,                            !- Calculation Method
  ,                                       !- Temperature Schedule Name
  10.8,                                   !- Annual Average Outdoor Air Temperature {C}
  23.2;                                   !- Maximum Difference In Monthly Average Outdoor Air Temperatures {deltaC}

OS:SizingPeriod:DesignDay,
  {a9f21114-7064-42aa-89e9-84098ac6fc34}, !- Handle
  Denver Intl Ap Ann Clg .4% Condns DB=>MWB 1, !- Name
  34.6,                                   !- Maximum Dry-Bulb Temperature {C}
  15.2,                                   !- Daily Dry-Bulb Temperature Range {deltaC}
  15.7,                                   !- Humidity Indicating Conditions at Maximum Dry-Bulb
  83011,                                  !- Barometric Pressure {Pa}
  4.2,                                    !- Wind Speed {m/s}
  80,                                     !- Wind Direction {deg}
  0,                                      !- Sky Clearness
  0,                                      !- Rain Indicator
  0,                                      !- Snow Indicator
  21,                                     !- Day of Month
  7,                                      !- Month
  SummerDesignDay,                        !- Day Type
  0,                                      !- Daylight Saving Time Indicator
  Wetbulb,                                !- Humidity Indicating Type
  ,                                       !- Humidity Indicating Day Schedule Name
  DefaultMultipliers,                     !- Dry-Bulb Temperature Range Modifier Type
  ,                                       !- Dry-Bulb Temperature Range Modifier Schedule Name
  ASHRAETau,                              !- Solar Model Indicator
  ,                                       !- Beam Solar Day Schedule Name
  ,                                       !- Diffuse Solar Day Schedule Name
  0.424,                                  !- ASHRAE Taub {dimensionless}
  2.012;                                  !- ASHRAE Taud {dimensionless}

OS:SizingPeriod:DesignDay,
  {81f65c69-f99b-49f8-8199-522a4ac5a9b5}, !- Handle
  Denver Intl Ap Ann Clg .4% Condns WB=>MDB 1, !- Name
  27.3,                                   !- Maximum Dry-Bulb Temperature {C}
  15.2,                                   !- Daily Dry-Bulb Temperature Range {deltaC}
  18.3,                                   !- Humidity Indicating Conditions at Maximum Dry-Bulb
  83011,                                  !- Barometric Pressure {Pa}
  4.2,                                    !- Wind Speed {m/s}
  80,                                     !- Wind Direction {deg}
  0,                                      !- Sky Clearness
  0,                                      !- Rain Indicator
  0,                                      !- Snow Indicator
  21,                                     !- Day of Month
  7,                                      !- Month
  SummerDesignDay,                        !- Day Type
  0,                                      !- Daylight Saving Time Indicator
  Wetbulb,                                !- Humidity Indicating Type
  ,                                       !- Humidity Indicating Day Schedule Name
  DefaultMultipliers,                     !- Dry-Bulb Temperature Range Modifier Type
  ,                                       !- Dry-Bulb Temperature Range Modifier Schedule Name
  ASHRAETau,                              !- Solar Model Indicator
  ,                                       !- Beam Solar Day Schedule Name
  ,                                       !- Diffuse Solar Day Schedule Name
  0.424,                                  !- ASHRAE Taub {dimensionless}
  2.012;                                  !- ASHRAE Taud {dimensionless}

OS:SizingPeriod:DesignDay,
  {7aa03f0c-3027-494b-97e4-4794004b7b7d}, !- Handle
  Denver Intl Ap Ann Htg 99.6% Condns DB 1, !- Name
  -17.4,                                  !- Maximum Dry-Bulb Temperature {C}
  0,                                      !- Daily Dry-Bulb Temperature Range {deltaC}
  -17.4,                                  !- Humidity Indicating Conditions at Maximum Dry-Bulb
  83011,                                  !- Barometric Pressure {Pa}
  3.3,                                    !- Wind Speed {m/s}
  160,                                    !- Wind Direction {deg}
  0,                                      !- Sky Clearness
  0,                                      !- Rain Indicator
  0,                                      !- Snow Indicator
  21,                                     !- Day of Month
  12,                                     !- Month
  WinterDesignDay,                        !- Day Type
  0,                                      !- Daylight Saving Time Indicator
  Wetbulb,                                !- Humidity Indicating Type
  ,                                       !- Humidity Indicating Day Schedule Name
  DefaultMultipliers,                     !- Dry-Bulb Temperature Range Modifier Type
  ,                                       !- Dry-Bulb Temperature Range Modifier Schedule Name
  ASHRAEClearSky;                         !- Solar Model Indicator

OS:ClimateZones,
  {3cccf558-c898-49ea-a8a3-f4b7ba3a8492}, !- Handle
  ASHRAE,                                 !- Climate Zone Institution Name 1
  ANSI/ASHRAE Standard 169,               !- Climate Zone Document Name 1
  2006,                                   !- Climate Zone Document Year 1
  5B;                                     !- Climate Zone Value 1

OS:Rendering:Color,
  {cc01faad-2365-404c-9cf1-cd9fb25c8066}, !- Handle
  Office WholeBuilding - Sm Office,       !- Name
  120,                                    !- Rendering Red Value
  230,                                    !- Rendering Green Value
  199;                                    !- Rendering Blue Value

OS:RunPeriodControl:DaylightSavingTime,
  {a3ab8eeb-de5a-4c00-a1df-67b8e8c5b134}, !- Handle
  2nd Sunday in March,                    !- Start Date
  1st Sunday in November;                 !- End Date

OS:People:Definition,
  {62514bba-cb7d-40ae-ae05-d8a01feb9bed}, !- Handle
  Office WholeBuilding - Sm Office People Definition, !- Name
  People/Area,                            !- Number of People Calculation Method
  ,                                       !- Number of People {people}
  0.0602778983335744,                     !- People per Space Floor Area {person/m2}
  ,                                       !- Space Floor Area per Person {m2/person}
  0.3,                                    !- Fraction Radiant
  ,                                       !- Sensible Heat Fraction
  ,                                       !- Carbon Dioxide Generation Rate {m3/s-W}
  Yes,                                    !- Enable ASHRAE 55 Comfort Warnings
  ZoneAveraged,                           !- Mean Radiant Temperature Calculation Type
  Fanger;                                 !- Thermal Comfort Model Type 1

OS:Schedule:Ruleset,
  {665b537b-1009-4216-b12a-80c397826a29}, !- Handle
  Clothing Schedule,                      !- Name
  {33159740-218d-4811-a5a8-3611657d5230}, !- Schedule Type Limits Name
  {2799717b-c88d-44be-b37a-9994409db573}; !- Default Day Schedule Name

OS:Schedule:Day,
  {2799717b-c88d-44be-b37a-9994409db573}, !- Handle
  Clothing Schedule Default Winter Clothes, !- Name
  {33159740-218d-4811-a5a8-3611657d5230}, !- Schedule Type Limits Name
  ,                                       !- Interpolate to Timestep
  24,                                     !- Hour 1
  0,                                      !- Minute 1
  1;                                      !- Value Until Time 1

OS:Schedule:Rule,
  {f26dccc9-c06e-42dc-9481-285f232cc110}, !- Handle
  Schedule Rule 1,                        !- Name
  {665b537b-1009-4216-b12a-80c397826a29}, !- Schedule Ruleset Name
  0,                                      !- Rule Order
  {9427e975-77ff-4b7c-b98c-f0bc81d87dfe}, !- Day Schedule Name
  ,                                       !- Apply Sunday
  ,                                       !- Apply Monday
  ,                                       !- Apply Tuesday
  ,                                       !- Apply Wednesday
  ,                                       !- Apply Thursday
  ,                                       !- Apply Friday
  ,                                       !- Apply Saturday
  DateRange,                              !- Date Specification Type
  5,                                      !- Start Month
  1,                                      !- Start Day
  9,                                      !- End Month
  30;                                     !- End Day

OS:Schedule:Day,
  {9427e975-77ff-4b7c-b98c-f0bc81d87dfe}, !- Handle
  Clothing Schedule Summer Clothes,       !- Name
  {33159740-218d-4811-a5a8-3611657d5230}, !- Schedule Type Limits Name
  ,                                       !- Interpolate to Timestep
  24,                                     !- Hour 1
  0,                                      !- Minute 1
  0.5;                                    !- Value Until Time 1

OS:ScheduleTypeLimits,
  {33159740-218d-4811-a5a8-3611657d5230}, !- Handle
  ClothingInsulation,                     !- Name
  0,                                      !- Lower Limit Value
  ,                                       !- Upper Limit Value
  Continuous,                             !- Numeric Type
  ClothingInsulation;                     !- Unit Type

OS:Schedule:Ruleset,
  {673709d1-fcb3-4ada-8618-676fc6b5bd36}, !- Handle
  Air Velocity Schedule,                  !- Name
  {d74f5286-b654-442c-bc6b-49c7c390844d}, !- Schedule Type Limits Name
  {e704f877-cc1d-4934-bff5-4a0a9632e741}; !- Default Day Schedule Name

OS:Schedule:Day,
  {e704f877-cc1d-4934-bff5-4a0a9632e741}, !- Handle
  Air Velocity Schedule Default,          !- Name
  {d74f5286-b654-442c-bc6b-49c7c390844d}, !- Schedule Type Limits Name
  ,                                       !- Interpolate to Timestep
  24,                                     !- Hour 1
  0,                                      !- Minute 1
  0.2;                                    !- Value Until Time 1

OS:ScheduleTypeLimits,
  {d74f5286-b654-442c-bc6b-49c7c390844d}, !- Handle
  Velocity,                               !- Name
  0,                                      !- Lower Limit Value
  ,                                       !- Upper Limit Value
  Continuous,                             !- Numeric Type
  Velocity;                               !- Unit Type

OS:Schedule:Ruleset,
  {ea648ac7-862d-4636-a12d-f8eca49e1c3e}, !- Handle
  Work Efficiency Schedule,               !- Name
  {b3d6601c-a0ef-46a6-84c8-2fee77bbcbc5}, !- Schedule Type Limits Name
  {a76ef77a-1ecf-407a-9734-f6c904999887}; !- Default Day Schedule Name

OS:Schedule:Day,
  {a76ef77a-1ecf-407a-9734-f6c904999887}, !- Handle
  Work Efficiency Schedule Default,       !- Name
  {b3d6601c-a0ef-46a6-84c8-2fee77bbcbc5}, !- Schedule Type Limits Name
  ,                                       !- Interpolate to Timestep
  24,                                     !- Hour 1
  0,                                      !- Minute 1
  0;                                      !- Value Until Time 1

OS:ScheduleTypeLimits,
  {b3d6601c-a0ef-46a6-84c8-2fee77bbcbc5}, !- Handle
  Fractional,                             !- Name
  0,                                      !- Lower Limit Value
  1,                                      !- Upper Limit Value
  Continuous;                             !- Numeric Type

OS:Lights:Definition,
  {c58f1975-9d85-4463-962d-64a7f5b302ae}, !- Handle
  Office WholeBuilding - Sm Office Lights Definition, !- Name
  Watts/Area,                             !- Design Level Calculation Method
  ,                                       !- Lighting Level {W}
  6.88890266669422,                       !- Watts per Space Floor Area {W/m2}
  ,                                       !- Watts per Person {W/person}
  0.7,                                    !- Fraction Radiant
  0.2,                                    !- Fraction Visible
  0;                                      !- Return Air Fraction

OS:AdditionalProperties,
  {f7472ecc-26a1-4671-9374-675b8ea27de4}, !- Handle
  {c58f1975-9d85-4463-962d-64a7f5b302ae}, !- Object Name
  lpd_fraction_linear_fluorescent,        !- Feature Name 1
  Double,                                 !- Feature Data Type 1
  1;                                      !- Feature Value 1

OS:ElectricEquipment:Definition,
  {c594ffa3-7ce1-459e-a8e7-9937bd60e9a4}, !- Handle
  Office WholeBuilding - Sm Office Elec Equip Definition, !- Name
  Watts/Area,                             !- Design Level Calculation Method
  ,                                       !- Design Level {W}
  6.78126356252712,                       !- Watts per Space Floor Area {W/m2}
  ,                                       !- Watts per Person {W/person}
  0,                                      !- Fraction Latent
  0,                                      !- Fraction Radiant
  0;                                      !- Fraction Lost

OS:DesignSpecification:OutdoorAir,
  {1ee69208-9623-41ef-9644-d622bc0ad78b}, !- Handle
  Office WholeBuilding - Sm Office Ventilation, !- Name
  Sum,                                    !- Outdoor Air Method
  ,                                       !- Outdoor Air Flow per Person {m3/s-person}
  0.0004318,                              !- Outdoor Air Flow per Floor Area {m3/s-m2}
  ,                                       !- Outdoor Air Flow Rate {m3/s}
  ,                                       !- Outdoor Air Flow Air Changes per Hour {1/hr}
  ;                                       !- Outdoor Air Flow Rate Fraction Schedule Name

OS:DefaultScheduleSet,
  {f7cfe90a-06af-4d15-bcbf-6cad505b0949}, !- Handle
  Office WholeBuilding - Sm Office Schedule Set, !- Name
  ,                                       !- Hours of Operation Schedule Name
  {e3f5cf72-3f0f-4b8c-a273-f6f17f9fa7bc}, !- Number of People Schedule Name
  {de72118b-0b58-433e-945c-5446b8bd533a}, !- People Activity Level Schedule Name
  {89d0ee49-ab83-4733-8241-383611ab3f9e}, !- Lighting Schedule Name
  {b412380d-f3b8-45e5-ae76-d3641227d9da}, !- Electric Equipment Schedule Name
  ,                                       !- Gas Equipment Schedule Name
  ,                                       !- Hot Water Equipment Schedule Name
  {8336b729-6c72-4867-b675-3b636ad72e76}, !- Infiltration Schedule Name
  ,                                       !- Steam Equipment Schedule Name
  ;                                       !- Other Equipment Schedule Name

OS:Schedule:Ruleset,
  {e3f5cf72-3f0f-4b8c-a273-f6f17f9fa7bc}, !- Handle
  OfficeSmall BLDG_OCC_SCH,               !- Name
  {b3d6601c-a0ef-46a6-84c8-2fee77bbcbc5}, !- Schedule Type Limits Name
  {64133811-8a20-4378-a487-42916b9f8734}, !- Default Day Schedule Name
  {a2520737-b7af-4752-aae1-2f726200f9a7}, !- Summer Design Day Schedule Name
  {bdb864c3-5b94-419d-becb-2d41469b9e9c}; !- Winter Design Day Schedule Name

OS:Schedule:Day,
  {64133811-8a20-4378-a487-42916b9f8734}, !- Handle
  OfficeSmall BLDG_OCC_SCH Default,       !- Name
  {b3d6601c-a0ef-46a6-84c8-2fee77bbcbc5}, !- Schedule Type Limits Name
  Yes,                                    !- Interpolate to Timestep
  8,                                      !- Hour 1
  0,                                      !- Minute 1
  0,                                      !- Value Until Time 1
  24,                                     !- Hour 2
  0,                                      !- Minute 2
  0;                                      !- Value Until Time 2

OS:Schedule:Day,
  {bdb864c3-5b94-419d-becb-2d41469b9e9c}, !- Handle
  OfficeSmall BLDG_OCC_SCH Winter Design Day, !- Name
  {b3d6601c-a0ef-46a6-84c8-2fee77bbcbc5}, !- Schedule Type Limits Name
  ,                                       !- Interpolate to Timestep
  24,                                     !- Hour 1
  0,                                      !- Minute 1
  0;                                      !- Value Until Time 1

OS:Schedule:Day,
  {a2520737-b7af-4752-aae1-2f726200f9a7}, !- Handle
  OfficeSmall BLDG_OCC_SCH Summer Design Day, !- Name
  {b3d6601c-a0ef-46a6-84c8-2fee77bbcbc5}, !- Schedule Type Limits Name
  ,                                       !- Interpolate to Timestep
  24,                                     !- Hour 1
  0,                                      !- Minute 1
  1;                                      !- Value Until Time 1

OS:Schedule:Rule,
  {48fb82ab-42d6-4647-831f-961bbde7b02c}, !- Handle
  Schedule Rule 2,                        !- Name
  {e3f5cf72-3f0f-4b8c-a273-f6f17f9fa7bc}, !- Schedule Ruleset Name
  0,                                      !- Rule Order
  {6cfe5a1b-75d8-47ce-bf30-374a9c177dba}, !- Day Schedule Name
  ,                                       !- Apply Sunday
  Yes,                                    !- Apply Monday
  Yes,                                    !- Apply Tuesday
  Yes,                                    !- Apply Wednesday
  Yes,                                    !- Apply Thursday
  Yes,                                    !- Apply Friday
  ,                                       !- Apply Saturday
  DateRange,                              !- Date Specification Type
  1,                                      !- Start Month
  1,                                      !- Start Day
  12,                                     !- End Month
  31;                                     !- End Day

OS:Schedule:Day,
  {6cfe5a1b-75d8-47ce-bf30-374a9c177dba}, !- Handle
  OfficeSmall BLDG_OCC_SCH Wkdy Day,      !- Name
  {b3d6601c-a0ef-46a6-84c8-2fee77bbcbc5}, !- Schedule Type Limits Name
  Yes,                                    !- Interpolate to Timestep
  5,                                      !- Hour 1
  30,                                     !- Minute 1
  0,                                      !- Value Until Time 1
  6,                                      !- Hour 2
  30,                                     !- Minute 2
  0.11,                                   !- Value Until Time 2
  7,                                      !- Hour 3
  30,                                     !- Minute 3
  0.21,                                   !- Value Until Time 3
  8,                                      !- Hour 4
  30,                                     !- Minute 4
  1,                                      !- Value Until Time 4
  9,                                      !- Hour 5
  30,                                     !- Minute 5
  1,                                      !- Value Until Time 5
  10,                                     !- Hour 6
  30,                                     !- Minute 6
  1,                                      !- Value Until Time 6
  11,                                     !- Hour 7
  30,                                     !- Minute 7
  0.53,                                   !- Value Until Time 7
  12,                                     !- Hour 8
  30,                                     !- Minute 8
  1,                                      !- Value Until Time 8
  13,                                     !- Hour 9
  30,                                     !- Minute 9
  1,                                      !- Value Until Time 9
  14,                                     !- Hour 10
  30,                                     !- Minute 10
  1,                                      !- Value Until Time 10
  15,                                     !- Hour 11
  30,                                     !- Minute 11
  0.32,                                   !- Value Until Time 11
  16,                                     !- Hour 12
  30,                                     !- Minute 12
  0.11,                                   !- Value Until Time 12
  17,                                     !- Hour 13
  30,                                     !- Minute 13
  0.11,                                   !- Value Until Time 13
  19,                                     !- Hour 14
  30,                                     !- Minute 14
  0.11,                                   !- Value Until Time 14
  20,                                     !- Hour 15
  30,                                     !- Minute 15
  0.05,                                   !- Value Until Time 15
  21,                                     !- Hour 16
  30,                                     !- Minute 16
  0,                                      !- Value Until Time 16
  22,                                     !- Hour 17
  30,                                     !- Minute 17
  0,                                      !- Value Until Time 17
  24,                                     !- Hour 18
  0,                                      !- Minute 18
  0;                                      !- Value Until Time 18

OS:Schedule:Ruleset,
  {de72118b-0b58-433e-945c-5446b8bd533a}, !- Handle
  OfficeSmall ACTIVITY_SCH,               !- Name
  {d1c59d42-ae81-4469-af34-56682a07aaff}, !- Schedule Type Limits Name
  {73644a57-064e-42a2-a122-90f755e06acb}, !- Default Day Schedule Name
  {a4afc419-bab9-49de-a99d-a322e79b4aa9}, !- Summer Design Day Schedule Name
  {4ca79d6e-7d46-404b-949b-c6fe7a21d1be}; !- Winter Design Day Schedule Name

OS:Schedule:Day,
  {73644a57-064e-42a2-a122-90f755e06acb}, !- Handle
  OfficeSmall ACTIVITY_SCH Default,       !- Name
  {d1c59d42-ae81-4469-af34-56682a07aaff}, !- Schedule Type Limits Name
  Yes,                                    !- Interpolate to Timestep
  23,                                     !- Hour 1
  30,                                     !- Minute 1
  120,                                    !- Value Until Time 1
  24,                                     !- Hour 2
  0,                                      !- Minute 2
  120;                                    !- Value Until Time 2

OS:Schedule:Day,
  {4ca79d6e-7d46-404b-949b-c6fe7a21d1be}, !- Handle
  OfficeSmall ACTIVITY_SCH Winter Design Day, !- Name
  {d1c59d42-ae81-4469-af34-56682a07aaff}, !- Schedule Type Limits Name
  ,                                       !- Interpolate to Timestep
  24,                                     !- Hour 1
  0,                                      !- Minute 1
  120;                                    !- Value Until Time 1

OS:Schedule:Day,
  {a4afc419-bab9-49de-a99d-a322e79b4aa9}, !- Handle
  OfficeSmall ACTIVITY_SCH Summer Design Day, !- Name
  {d1c59d42-ae81-4469-af34-56682a07aaff}, !- Schedule Type Limits Name
  ,                                       !- Interpolate to Timestep
  24,                                     !- Hour 1
  0,                                      !- Minute 1
  120;                                    !- Value Until Time 1

OS:ScheduleTypeLimits,
  {d1c59d42-ae81-4469-af34-56682a07aaff}, !- Handle
  ActivityLevel,                          !- Name
  0,                                      !- Lower Limit Value
  ,                                       !- Upper Limit Value
  Continuous,                             !- Numeric Type
  ActivityLevel;                          !- Unit Type

OS:Schedule:Ruleset,
  {89d0ee49-ab83-4733-8241-383611ab3f9e}, !- Handle
  OfficeSmall BLDG_LIGHT_SCH_2013,        !- Name
  {b3d6601c-a0ef-46a6-84c8-2fee77bbcbc5}, !- Schedule Type Limits Name
  {caeaac6d-1a0e-4bb1-ab09-d8797ff2c7a5}, !- Default Day Schedule Name
  {6c1e61be-5de8-442d-85ef-f6a64a0ec5b2}, !- Summer Design Day Schedule Name
  {c3c3209e-a89e-41b1-8bb3-9d2c321f6440}; !- Winter Design Day Schedule Name

OS:Schedule:Day,
  {caeaac6d-1a0e-4bb1-ab09-d8797ff2c7a5}, !- Handle
  OfficeSmall BLDG_LIGHT_SCH_2013 Default, !- Name
  {b3d6601c-a0ef-46a6-84c8-2fee77bbcbc5}, !- Schedule Type Limits Name
  Yes,                                    !- Interpolate to Timestep
  4,                                      !- Hour 1
  30,                                     !- Minute 1
  0.18,                                   !- Value Until Time 1
  5,                                      !- Hour 2
  30,                                     !- Minute 2
  0.23,                                   !- Value Until Time 2
  6,                                      !- Hour 3